/*--------------------------------*- C++ -*----------------------------------*\
| =========                 |                                                 |
| \\      /  F ield         | OpenFOAM: The Open Source CFD Toolbox           |
|  \\    /   O peration     | Version:  2.1.x                                 |
|   \\  /    A nd           | Web:      www.OpenFOAM.org                      |
|    \\/     M anipulation  |                                                 |
\*---------------------------------------------------------------------------*/
FoamFile
{
    version     2.0;
    format      ascii;
    class       featureEdgeMesh;
    location    "constant/triSurface";
    object      dominio.eMesh;
}
// * * * * * * * * * * * * * * * * * * * * * * * * * * * * * * * * * * * * * //


// points:

280
(
(0.008107800037 0.02549999952 0.0007970649749)
(0.008637299761 0.02549999952 0.0006117949961)
(0.008107800037 -0.008500000462 0.0007970649749)
(0.007587200031 -0.008500000462 0.001005899976)
(0.009174549952 0.02549999952 0.0004504650133)
(0.008637299761 -0.008500000462 0.0006117949961)
(0.02500000037 0.02549999952 0.01250000019)
(0.02498739958 0.02549999952 0.0130607998)
(0.009718500078 0.02549999952 0.0003133999999)
(0.009174549952 -0.008500000462 0.0004504650133)
(0.02498739958 -0.008500000462 0.0130607998)
(0.02500000037 -0.008500000462 0.01250000019)
(0.02494969964 0.02549999952 0.01362050045)
(0.009718500078 -0.008500000462 0.0003133999999)
(0.02494969964 -0.008500000462 0.01362050045)
(0.01026809961 0.02549999952 0.0002008799929)
(0.01082209963 0.02549999952 0.0001131289973)
(0.02488690056 0.02549999952 0.01417789981)
(0.01026809961 -0.008500000462 0.0002008799929)
(0.02488690056 -0.008500000462 0.01417789981)
(0.01137949992 0.02549999952 5.031950059e-05)
(0.02479909919 -0.008500000462 0.01473200042)
(0.01082209963 -0.008500000462 0.0001131289973)
(0.02479909919 0.02549999952 0.01473200042)
(0.01193919964 0.02549999952 1.258470002e-05)
(0.01137949992 -0.008500000462 5.031950059e-05)
(0.02468659915 -0.008500000462 0.01528150029)
(0.02468659915 0.02549999952 0.01528150029)
(0.01250000019 0.02549999952 0)
(0.01193919964 -0.008500000462 1.258470002e-05)
(0.02454949915 -0.008500000462 0.01582550071)
(0.02454949915 0.02549999952 0.01582550071)
(0.02438819967 0.02549999952 0.01636270061)
(0.01250000019 -0.008500000462 1.73471996e-18)
(0.0130607998 0.02549999952 1.258470002e-05)
(0.02438819967 -0.008500000462 0.01636270061)
(0.0130607998 -0.008500000462 1.258470002e-05)
(0.01362050045 0.02549999952 5.031950059e-05)
(0.02420300059 -0.008500000462 0.01689220034)
(0.01362050045 -0.008500000462 5.031950059e-05)
(0.02420300059 0.02549999952 0.01689220034)
(0.01417789981 0.02549999952 0.0001131289973)
(0.01417789981 -0.008500000462 0.0001131289973)
(0.02399409935 -0.008500000462 0.01741280034)
(0.01473200042 0.02549999952 0.0002008799929)
(0.02399409935 0.02549999952 0.01741280034)
(0.02376209944 0.02549999952 0.01792359911)
(0.01473200042 -0.008500000462 0.0002008799929)
(0.02376209944 -0.008500000462 0.01792359911)
(0.01528150029 -0.008500000462 0.0003133999999)
(0.01528150029 0.02549999952 0.0003133999999)
(0.01582550071 0.02549999952 0.0004504650133)
(0.02350739948 -0.008500000462 0.01842340082)
(0.02350739948 0.02549999952 0.01842340082)
(0.01582550071 -0.008500000462 0.0004504650133)
(0.01636270061 0.02549999952 0.0006117949961)
(0.02323059924 -0.008500000462 0.01891119964)
(0.02323059924 0.02549999952 0.01891119964)
(0.01636270061 -0.008500000462 0.0006117949961)
(0.01689220034 0.02549999952 0.0007970649749)
(0.02293209918 -0.008500000462 0.01938620023)
(0.02293209918 0.02549999952 0.01938620023)
(0.01689220034 -0.008500000462 0.0007970649749)
(0.01741280034 0.02549999952 0.001005899976)
(0.01741280034 -0.008500000462 0.001005899976)
(0.02261270024 -0.008500000462 0.0198472999)
(0.02261270024 0.02549999952 0.0198472999)
(0.01792359911 0.02549999952 0.001237889985)
(0.01792359911 -0.008500000462 0.001237889985)
(0.01842340082 0.02549999952 0.001492560026)
(0.02227289975 -0.008500000462 0.02029360086)
(0.02227289975 0.02549999952 0.02029360086)
(0.02191339992 0.02549999952 0.0207243003)
(0.01842340082 -0.008500000462 0.001492560026)
(0.01891119964 0.02549999952 0.001769389957)
(0.02191339992 -0.008500000462 0.0207243003)
(0.01891119964 -0.008500000462 0.001769389957)
(0.01938620023 0.02549999952 0.00206783996)
(0.02153489925 -0.008500000462 0.02113829926)
(0.02153489925 0.02549999952 0.02113829926)
(0.01938620023 -0.008500000462 0.00206783996)
(0.0198472999 0.02549999952 0.002387289889)
(0.02113829926 0.02549999952 0.02153489925)
(0.02113829926 -0.008500000462 0.02153489925)
(0.0198472999 -0.008500000462 0.002387289889)
(0.0207243003 0.02549999952 0.02191339992)
(0.02029360086 0.02549999952 0.002727109939)
(0.0207243003 0.02549999952 0.003086609999)
(0.02029360086 -0.008500000462 0.002727109939)
(0.0207243003 -0.008500000462 0.02191339992)
(0.02113829926 0.02549999952 0.003465069924)
(0.02029360086 0.02549999952 0.02227289975)
(0.0207243003 -0.008500000462 0.003086609999)
(0.02029360086 -0.008500000462 0.02227289975)
(0.02153489925 0.02549999952 0.003861719975)
(0.02113829926 -0.008500000462 0.003465069924)
(0.0198472999 0.02549999952 0.02261270024)
(0.01938620023 0.02549999952 0.02293209918)
(0.0198472999 -0.008500000462 0.02261270024)
(0.02191339992 0.02549999952 0.004275760148)
(0.02153489925 -0.008500000462 0.003861719975)
(0.01938620023 -0.008500000462 0.02293209918)
(0.02227289975 0.02549999952 0.004706370179)
(0.02191339992 -0.008500000462 0.004275760148)
(0.01891119964 -0.008500000462 0.02323059924)
(0.01891119964 0.02549999952 0.02323059924)
(0.01842340082 0.02549999952 0.02350739948)
(0.02261270024 0.02549999952 0.005152700003)
(0.02227289975 -0.008500000462 0.004706370179)
(0.01792359911 0.02549999952 0.02376209944)
(0.02293209918 0.02549999952 0.005613800138)
(0.01842340082 -0.008500000462 0.02350739948)
(0.02261270024 -0.008500000462 0.005152700003)
(0.02323059924 0.02549999952 0.006088749971)
(0.01792359911 -0.008500000462 0.02376209944)
(0.02293209918 -0.008500000462 0.005613800138)
(0.01741280034 0.02549999952 0.02399409935)
(0.01689220034 0.02549999952 0.02420300059)
(0.02323059924 -0.008500000462 0.006088749971)
(0.01741280034 -0.008500000462 0.02399409935)
(0.02350739948 0.02549999952 0.006576649845)
(0.02376209944 0.02549999952 0.007076450158)
(0.01689220034 -0.008500000462 0.02420300059)
(0.02350739948 -0.008500000462 0.006576649845)
(0.02376209944 -0.008500000462 0.007076450158)
(0.01636270061 0.02549999952 0.02438819967)
(0.02399409935 0.02549999952 0.007587200031)
(0.01582550071 0.02549999952 0.02454949915)
(0.01636270061 -0.008500000462 0.02438819967)
(0.02399409935 -0.008500000462 0.007587200031)
(0.02420300059 0.02549999952 0.008107800037)
(0.01582550071 -0.008500000462 0.02454949915)
(0.02420300059 -0.008500000462 0.008107800037)
(0.02438819967 0.02549999952 0.008637299761)
(0.01528150029 -0.008500000462 0.02468659915)
(0.01528150029 0.02549999952 0.02468659915)
(0.01473200042 0.02549999952 0.02479909919)
(0.02438819967 -0.008500000462 0.008637299761)
(0.02454949915 0.02549999952 0.009174549952)
(0.01473200042 -0.008500000462 0.02479909919)
(0.02454949915 -0.008500000462 0.009174549952)
(0.01417789981 0.02549999952 0.02488690056)
(0.02468659915 0.02549999952 0.009718500078)
(0.02468659915 -0.008500000462 0.009718500078)
(0.01417789981 -0.008500000462 0.02488690056)
(0.02479909919 0.02549999952 0.01026809961)
(0.02479909919 -0.008500000462 0.01026809961)
(0.01362050045 -0.008500000462 0.02494969964)
(0.02488690056 0.02549999952 0.01082209963)
(0.01362050045 0.02549999952 0.02494969964)
(0.0130607998 0.02549999952 0.02498739958)
(0.02488690056 -0.008500000462 0.01082209963)
(0.02494969964 0.02549999952 0.01137949992)
(0.0130607998 -0.008500000462 0.02498739958)
(0.02494969964 -0.008500000462 0.01137949992)
(0.01250000019 -0.008500000462 0.02500000037)
(0.01250000019 0.02549999952 0.02500000037)
(0.01193919964 0.02549999952 0.02498739958)
(0.02498739958 -0.008500000462 0.01193919964)
(0.02498739958 0.02549999952 0.01193919964)
(0.01193919964 -0.008500000462 0.02498739958)
(0.01137949992 -0.008500000462 0.02494969964)
(0.01137949992 0.02549999952 0.02494969964)
(0.01082209963 0.02549999952 0.02488690056)
(0.01082209963 -0.008500000462 0.02488690056)
(0.01026809961 0.02549999952 0.02479909919)
(0.01026809961 -0.008500000462 0.02479909919)
(0.009718500078 -0.008500000462 0.02468659915)
(0.009718500078 0.02549999952 0.02468659915)
(0.009174549952 0.02549999952 0.02454949915)
(0.009174549952 -0.008500000462 0.02454949915)
(0.008637299761 -0.008500000462 0.02438819967)
(0.008637299761 0.02549999952 0.02438819967)
(0.008107800037 0.02549999952 0.02420300059)
(0.008107800037 -0.008500000462 0.02420300059)
(0.007587200031 0.02549999952 0.02399409935)
(0.007587200031 -0.008500000462 0.02399409935)
(0.007076450158 0.02549999952 0.02376209944)
(0.007076450158 -0.008500000462 0.02376209944)
(0.006576649845 -0.008500000462 0.02350739948)
(0.006576649845 0.02549999952 0.02350739948)
(0.006088749971 0.02549999952 0.02323059924)
(0.006088749971 -0.008500000462 0.02323059924)
(0.005613800138 0.02549999952 0.02293209918)
(0.005613800138 -0.008500000462 0.02293209918)
(0.005152700003 0.02549999952 0.02261270024)
(0.005152700003 -0.008500000462 0.02261270024)
(0.004706370179 0.02549999952 0.02227289975)
(0.004706370179 -0.008500000462 0.02227289975)
(0.004275760148 -0.008500000462 0.02191339992)
(0.004275760148 0.02549999952 0.02191339992)
(0.003861719975 0.02549999952 0.02153489925)
(0.003465069924 0.02549999952 0.02113829926)
(0.003861719975 -0.008500000462 0.02153489925)
(0.003086609999 0.02549999952 0.0207243003)
(0.003465069924 -0.008500000462 0.02113829926)
(0.003086609999 -0.008500000462 0.0207243003)
(0.002727109939 0.02549999952 0.02029360086)
(0.002387289889 0.02549999952 0.0198472999)
(0.002727109939 -0.008500000462 0.02029360086)
(0.002387289889 -0.008500000462 0.0198472999)
(0.00206783996 0.02549999952 0.01938620023)
(0.00206783996 -0.008500000462 0.01938620023)
(0.001769389957 0.02549999952 0.01891119964)
(0.001769389957 -0.008500000462 0.01891119964)
(0.001492560026 0.02549999952 0.01842340082)
(0.001492560026 -0.008500000462 0.01842340082)
(0.001237889985 0.02549999952 0.01792359911)
(0.001005899976 0.02549999952 0.01741280034)
(0.001237889985 -0.008500000462 0.01792359911)
(0.0007970649749 0.02549999952 0.01689220034)
(0.001005899976 -0.008500000462 0.01741280034)
(0.0006117949961 0.02549999952 0.01636270061)
(0.0007970649749 -0.008500000462 0.01689220034)
(0.0004504650133 0.02549999952 0.01582550071)
(0.0006117949961 -0.008500000462 0.01636270061)
(0.0004504650133 -0.008500000462 0.01582550071)
(0.0003133999999 0.02549999952 0.01528150029)
(0.0002008799929 0.02549999952 0.01473200042)
(0.0003133999999 -0.008500000462 0.01528150029)
(0.0001131289973 0.02549999952 0.01417789981)
(0.0002008799929 -0.008500000462 0.01473200042)
(5.031950059e-05 0.02549999952 0.01362050045)
(0.0001131289973 -0.008500000462 0.01417789981)
(1.258470002e-05 0.02549999952 0.0130607998)
(5.031950059e-05 -0.008500000462 0.01362050045)
(1.258470002e-05 -0.008500000462 0.0130607998)
(0 0.02549999952 0.01250000019)
(1.258470002e-05 0.02549999952 0.01193919964)
(0 -0.008500000462 0.01250000019)
(5.031950059e-05 0.02549999952 0.01137949992)
(1.258470002e-05 -0.008500000462 0.01193919964)
(0.0001131289973 0.02549999952 0.01082209963)
(5.031950059e-05 -0.008500000462 0.01137949992)
(0.0001131289973 -0.008500000462 0.01082209963)
(0.0002008799929 0.02549999952 0.01026809961)
(0.0003133999999 0.02549999952 0.009718500078)
(0.0002008799929 -0.008500000462 0.01026809961)
(0.0004504650133 0.02549999952 0.009174549952)
(0.0003133999999 -0.008500000462 0.009718500078)
(0.0006117949961 0.02549999952 0.008637299761)
(0.0004504650133 -0.008500000462 0.009174549952)
(0.0007970649749 0.02549999952 0.008107800037)
(0.0006117949961 -0.008500000462 0.008637299761)
(0.0007970649749 -0.008500000462 0.008107800037)
(0.001005899976 0.02549999952 0.007587200031)
(0.001237889985 0.02549999952 0.007076450158)
(0.001005899976 -0.008500000462 0.007587200031)
(0.001237889985 -0.008500000462 0.007076450158)
(0.001492560026 0.02549999952 0.006576649845)
(0.001492560026 -0.008500000462 0.006576649845)
(0.001769389957 0.02549999952 0.006088749971)
(0.001769389957 -0.008500000462 0.006088749971)
(0.00206783996 0.02549999952 0.005613800138)
(0.00206783996 -0.008500000462 0.005613800138)
(0.002387289889 -0.008500000462 0.005152700003)
(0.002387289889 0.02549999952 0.005152700003)
(0.002727109939 0.02549999952 0.004706370179)
(0.002727109939 -0.008500000462 0.004706370179)
(0.003086609999 0.02549999952 0.004275760148)
(0.003465069924 0.02549999952 0.003861719975)
(0.003086609999 -0.008500000462 0.004275760148)
(0.003861719975 0.02549999952 0.003465069924)
(0.003465069924 -0.008500000462 0.003861719975)
(0.004275760148 0.02549999952 0.003086609999)
(0.003861719975 -0.008500000462 0.003465069924)
(0.004706370179 0.02549999952 0.002727109939)
(0.004275760148 -0.008500000462 0.003086609999)
(0.005152700003 0.02549999952 0.002387289889)
(0.004706370179 -0.008500000462 0.002727109939)
(0.005152700003 -0.008500000462 0.002387289889)
(0.005613800138 0.02549999952 0.00206783996)
(0.006088749971 0.02549999952 0.001769389957)
(0.005613800138 -0.008500000462 0.00206783996)
(0.006088749971 -0.008500000462 0.001769389957)
(0.006576649845 0.02549999952 0.001492560026)
(0.007076450158 0.02549999952 0.001237889985)
(0.006576649845 -0.008500000462 0.001492560026)
(0.007587200031 0.02549999952 0.001005899976)
(0.007076450158 -0.008500000462 0.001237889985)
)


// edges:

280
(
(0 1)
(2 3)
(1 4)
(5 2)
(6 7)
(4 8)
(9 5)
(10 11)
(7 12)
(13 9)
(14 10)
(8 15)
(15 16)
(12 17)
(18 13)
(19 14)
(16 20)
(21 19)
(22 18)
(17 23)
(20 24)
(25 22)
(26 21)
(23 27)
(24 28)
(29 25)
(30 26)
(27 31)
(31 32)
(33 29)
(28 34)
(35 30)
(36 33)
(34 37)
(38 35)
(39 36)
(32 40)
(37 41)
(42 39)
(43 38)
(41 44)
(40 45)
(45 46)
(47 42)
(48 43)
(49 47)
(44 50)
(50 51)
(52 48)
(46 53)
(54 49)
(51 55)
(56 52)
(53 57)
(58 54)
(55 59)
(60 56)
(57 61)
(62 58)
(59 63)
(64 62)
(65 60)
(61 66)
(63 67)
(68 64)
(67 69)
(70 65)
(66 71)
(71 72)
(73 68)
(69 74)
(75 70)
(76 73)
(74 77)
(78 75)
(72 79)
(80 76)
(77 81)
(79 82)
(83 78)
(84 80)
(82 85)
(81 86)
(86 87)
(88 84)
(89 83)
(87 90)
(85 91)
(92 88)
(93 89)
(90 94)
(95 92)
(91 96)
(96 97)
(98 93)
(94 99)
(100 95)
(101 98)
(99 102)
(103 100)
(104 101)
(97 105)
(105 106)
(102 107)
(108 103)
(106 109)
(107 110)
(111 104)
(112 108)
(110 113)
(114 111)
(115 112)
(109 116)
(116 117)
(118 115)
(119 114)
(113 120)
(120 121)
(122 119)
(123 118)
(124 123)
(117 125)
(121 126)
(125 127)
(128 122)
(129 124)
(126 130)
(131 128)
(132 129)
(130 133)
(134 131)
(127 135)
(135 136)
(137 132)
(133 138)
(139 134)
(140 137)
(136 141)
(138 142)
(143 140)
(144 139)
(142 145)
(146 143)
(147 144)
(145 148)
(141 149)
(149 150)
(151 146)
(148 152)
(153 147)
(154 151)
(155 153)
(150 156)
(156 157)
(158 154)
(152 159)
(159 6)
(11 158)
(160 155)
(161 160)
(157 162)
(162 163)
(164 161)
(163 165)
(166 164)
(167 166)
(165 168)
(168 169)
(170 167)
(171 170)
(169 172)
(172 173)
(174 171)
(173 175)
(176 174)
(175 177)
(178 176)
(179 178)
(177 180)
(180 181)
(182 179)
(181 183)
(184 182)
(183 185)
(186 184)
(185 187)
(188 186)
(189 188)
(187 190)
(190 191)
(191 192)
(193 189)
(192 194)
(195 193)
(196 195)
(194 197)
(197 198)
(199 196)
(200 199)
(198 201)
(202 200)
(201 203)
(204 202)
(203 205)
(206 204)
(207 208)
(209 206)
(205 207)
(208 210)
(211 209)
(210 212)
(213 211)
(212 214)
(215 213)
(216 215)
(214 217)
(217 218)
(219 216)
(218 220)
(221 219)
(220 222)
(223 221)
(222 224)
(225 223)
(226 225)
(224 227)
(227 228)
(229 226)
(228 230)
(231 229)
(230 232)
(233 231)
(234 233)
(232 235)
(235 236)
(237 234)
(236 238)
(239 237)
(238 240)
(241 239)
(240 242)
(243 241)
(244 243)
(242 245)
(245 246)
(247 244)
(248 247)
(246 249)
(250 248)
(249 251)
(252 250)
(251 253)
(254 252)
(255 254)
(253 256)
(256 257)
(258 255)
(257 259)
(259 260)
(261 258)
(260 262)
(263 261)
(262 264)
(265 263)
(264 266)
(267 265)
(266 268)
(269 267)
(270 269)
(268 271)
(271 272)
(273 270)
(274 273)
(272 275)
(275 276)
(277 274)
(276 278)
(279 277)
(278 0)
(3 279)
)

// * * * * * * * * * * * * * * * * * * * * * * * * * * * * * * * * * * * * * //


// ************************************************************************* //
