/*--------------------------------*- C++ -*----------------------------------*\
| =========                 |                                                 |
| \\      /  F ield         | OpenFOAM: The Open Source CFD Toolbox           |
|  \\    /   O peration     | Version:  2.1.x                                 |
|   \\  /    A nd           | Web:      www.OpenFOAM.org                      |
|    \\/     M anipulation  |                                                 |
\*---------------------------------------------------------------------------*/
FoamFile
{
    version     2.0;
    format      ascii;
    class       extendedFeatureEdgeMesh;
    location    "constant/extendedFeatureEdgeMesh";
    object      dominio.extendedFeatureEdgeMesh;
}
// * * * * * * * * * * * * * * * * * * * * * * * * * * * * * * * * * * * * * //

// points, edges, concaveStart, mixedStart, nonFeatureStart, 
// internalStart, flatStart, openStart, multipleStart, 
// normals, edgeNormals, featurePointNormals, regionEdges


280
(
(0.008107800037 0.02549999952 0.0007970649749)
(0.008637299761 0.02549999952 0.0006117949961)
(0.008107800037 -0.008500000462 0.0007970649749)
(0.007587200031 -0.008500000462 0.001005899976)
(0.009174549952 0.02549999952 0.0004504650133)
(0.008637299761 -0.008500000462 0.0006117949961)
(0.02500000037 0.02549999952 0.01250000019)
(0.02498739958 0.02549999952 0.0130607998)
(0.009718500078 0.02549999952 0.0003133999999)
(0.009174549952 -0.008500000462 0.0004504650133)
(0.02498739958 -0.008500000462 0.0130607998)
(0.02500000037 -0.008500000462 0.01250000019)
(0.02494969964 0.02549999952 0.01362050045)
(0.009718500078 -0.008500000462 0.0003133999999)
(0.02494969964 -0.008500000462 0.01362050045)
(0.01026809961 0.02549999952 0.0002008799929)
(0.01082209963 0.02549999952 0.0001131289973)
(0.02488690056 0.02549999952 0.01417789981)
(0.01026809961 -0.008500000462 0.0002008799929)
(0.02488690056 -0.008500000462 0.01417789981)
(0.01137949992 0.02549999952 5.031950059e-05)
(0.02479909919 -0.008500000462 0.01473200042)
(0.01082209963 -0.008500000462 0.0001131289973)
(0.02479909919 0.02549999952 0.01473200042)
(0.01193919964 0.02549999952 1.258470002e-05)
(0.01137949992 -0.008500000462 5.031950059e-05)
(0.02468659915 -0.008500000462 0.01528150029)
(0.02468659915 0.02549999952 0.01528150029)
(0.01250000019 0.02549999952 0)
(0.01193919964 -0.008500000462 1.258470002e-05)
(0.02454949915 -0.008500000462 0.01582550071)
(0.02454949915 0.02549999952 0.01582550071)
(0.02438819967 0.02549999952 0.01636270061)
(0.01250000019 -0.008500000462 1.73471996e-18)
(0.0130607998 0.02549999952 1.258470002e-05)
(0.02438819967 -0.008500000462 0.01636270061)
(0.0130607998 -0.008500000462 1.258470002e-05)
(0.01362050045 0.02549999952 5.031950059e-05)
(0.02420300059 -0.008500000462 0.01689220034)
(0.01362050045 -0.008500000462 5.031950059e-05)
(0.02420300059 0.02549999952 0.01689220034)
(0.01417789981 0.02549999952 0.0001131289973)
(0.01417789981 -0.008500000462 0.0001131289973)
(0.02399409935 -0.008500000462 0.01741280034)
(0.01473200042 0.02549999952 0.0002008799929)
(0.02399409935 0.02549999952 0.01741280034)
(0.02376209944 0.02549999952 0.01792359911)
(0.01473200042 -0.008500000462 0.0002008799929)
(0.02376209944 -0.008500000462 0.01792359911)
(0.01528150029 -0.008500000462 0.0003133999999)
(0.01528150029 0.02549999952 0.0003133999999)
(0.01582550071 0.02549999952 0.0004504650133)
(0.02350739948 -0.008500000462 0.01842340082)
(0.02350739948 0.02549999952 0.01842340082)
(0.01582550071 -0.008500000462 0.0004504650133)
(0.01636270061 0.02549999952 0.0006117949961)
(0.02323059924 -0.008500000462 0.01891119964)
(0.02323059924 0.02549999952 0.01891119964)
(0.01636270061 -0.008500000462 0.0006117949961)
(0.01689220034 0.02549999952 0.0007970649749)
(0.02293209918 -0.008500000462 0.01938620023)
(0.02293209918 0.02549999952 0.01938620023)
(0.01689220034 -0.008500000462 0.0007970649749)
(0.01741280034 0.02549999952 0.001005899976)
(0.01741280034 -0.008500000462 0.001005899976)
(0.02261270024 -0.008500000462 0.0198472999)
(0.02261270024 0.02549999952 0.0198472999)
(0.01792359911 0.02549999952 0.001237889985)
(0.01792359911 -0.008500000462 0.001237889985)
(0.01842340082 0.02549999952 0.001492560026)
(0.02227289975 -0.008500000462 0.02029360086)
(0.02227289975 0.02549999952 0.02029360086)
(0.02191339992 0.02549999952 0.0207243003)
(0.01842340082 -0.008500000462 0.001492560026)
(0.01891119964 0.02549999952 0.001769389957)
(0.02191339992 -0.008500000462 0.0207243003)
(0.01891119964 -0.008500000462 0.001769389957)
(0.01938620023 0.02549999952 0.00206783996)
(0.02153489925 -0.008500000462 0.02113829926)
(0.02153489925 0.02549999952 0.02113829926)
(0.01938620023 -0.008500000462 0.00206783996)
(0.0198472999 0.02549999952 0.002387289889)
(0.02113829926 0.02549999952 0.02153489925)
(0.02113829926 -0.008500000462 0.02153489925)
(0.0198472999 -0.008500000462 0.002387289889)
(0.0207243003 0.02549999952 0.02191339992)
(0.02029360086 0.02549999952 0.002727109939)
(0.0207243003 0.02549999952 0.003086609999)
(0.02029360086 -0.008500000462 0.002727109939)
(0.0207243003 -0.008500000462 0.02191339992)
(0.02113829926 0.02549999952 0.003465069924)
(0.02029360086 0.02549999952 0.02227289975)
(0.0207243003 -0.008500000462 0.003086609999)
(0.02029360086 -0.008500000462 0.02227289975)
(0.02153489925 0.02549999952 0.003861719975)
(0.02113829926 -0.008500000462 0.003465069924)
(0.0198472999 0.02549999952 0.02261270024)
(0.01938620023 0.02549999952 0.02293209918)
(0.0198472999 -0.008500000462 0.02261270024)
(0.02191339992 0.02549999952 0.004275760148)
(0.02153489925 -0.008500000462 0.003861719975)
(0.01938620023 -0.008500000462 0.02293209918)
(0.02227289975 0.02549999952 0.004706370179)
(0.02191339992 -0.008500000462 0.004275760148)
(0.01891119964 -0.008500000462 0.02323059924)
(0.01891119964 0.02549999952 0.02323059924)
(0.01842340082 0.02549999952 0.02350739948)
(0.02261270024 0.02549999952 0.005152700003)
(0.02227289975 -0.008500000462 0.004706370179)
(0.01792359911 0.02549999952 0.02376209944)
(0.02293209918 0.02549999952 0.005613800138)
(0.01842340082 -0.008500000462 0.02350739948)
(0.02261270024 -0.008500000462 0.005152700003)
(0.02323059924 0.02549999952 0.006088749971)
(0.01792359911 -0.008500000462 0.02376209944)
(0.02293209918 -0.008500000462 0.005613800138)
(0.01741280034 0.02549999952 0.02399409935)
(0.01689220034 0.02549999952 0.02420300059)
(0.02323059924 -0.008500000462 0.006088749971)
(0.01741280034 -0.008500000462 0.02399409935)
(0.02350739948 0.02549999952 0.006576649845)
(0.02376209944 0.02549999952 0.007076450158)
(0.01689220034 -0.008500000462 0.02420300059)
(0.02350739948 -0.008500000462 0.006576649845)
(0.02376209944 -0.008500000462 0.007076450158)
(0.01636270061 0.02549999952 0.02438819967)
(0.02399409935 0.02549999952 0.007587200031)
(0.01582550071 0.02549999952 0.02454949915)
(0.01636270061 -0.008500000462 0.02438819967)
(0.02399409935 -0.008500000462 0.007587200031)
(0.02420300059 0.02549999952 0.008107800037)
(0.01582550071 -0.008500000462 0.02454949915)
(0.02420300059 -0.008500000462 0.008107800037)
(0.02438819967 0.02549999952 0.008637299761)
(0.01528150029 -0.008500000462 0.02468659915)
(0.01528150029 0.02549999952 0.02468659915)
(0.01473200042 0.02549999952 0.02479909919)
(0.02438819967 -0.008500000462 0.008637299761)
(0.02454949915 0.02549999952 0.009174549952)
(0.01473200042 -0.008500000462 0.02479909919)
(0.02454949915 -0.008500000462 0.009174549952)
(0.01417789981 0.02549999952 0.02488690056)
(0.02468659915 0.02549999952 0.009718500078)
(0.02468659915 -0.008500000462 0.009718500078)
(0.01417789981 -0.008500000462 0.02488690056)
(0.02479909919 0.02549999952 0.01026809961)
(0.02479909919 -0.008500000462 0.01026809961)
(0.01362050045 -0.008500000462 0.02494969964)
(0.02488690056 0.02549999952 0.01082209963)
(0.01362050045 0.02549999952 0.02494969964)
(0.0130607998 0.02549999952 0.02498739958)
(0.02488690056 -0.008500000462 0.01082209963)
(0.02494969964 0.02549999952 0.01137949992)
(0.0130607998 -0.008500000462 0.02498739958)
(0.02494969964 -0.008500000462 0.01137949992)
(0.01250000019 -0.008500000462 0.02500000037)
(0.01250000019 0.02549999952 0.02500000037)
(0.01193919964 0.02549999952 0.02498739958)
(0.02498739958 -0.008500000462 0.01193919964)
(0.02498739958 0.02549999952 0.01193919964)
(0.01193919964 -0.008500000462 0.02498739958)
(0.01137949992 -0.008500000462 0.02494969964)
(0.01137949992 0.02549999952 0.02494969964)
(0.01082209963 0.02549999952 0.02488690056)
(0.01082209963 -0.008500000462 0.02488690056)
(0.01026809961 0.02549999952 0.02479909919)
(0.01026809961 -0.008500000462 0.02479909919)
(0.009718500078 -0.008500000462 0.02468659915)
(0.009718500078 0.02549999952 0.02468659915)
(0.009174549952 0.02549999952 0.02454949915)
(0.009174549952 -0.008500000462 0.02454949915)
(0.008637299761 -0.008500000462 0.02438819967)
(0.008637299761 0.02549999952 0.02438819967)
(0.008107800037 0.02549999952 0.02420300059)
(0.008107800037 -0.008500000462 0.02420300059)
(0.007587200031 0.02549999952 0.02399409935)
(0.007587200031 -0.008500000462 0.02399409935)
(0.007076450158 0.02549999952 0.02376209944)
(0.007076450158 -0.008500000462 0.02376209944)
(0.006576649845 -0.008500000462 0.02350739948)
(0.006576649845 0.02549999952 0.02350739948)
(0.006088749971 0.02549999952 0.02323059924)
(0.006088749971 -0.008500000462 0.02323059924)
(0.005613800138 0.02549999952 0.02293209918)
(0.005613800138 -0.008500000462 0.02293209918)
(0.005152700003 0.02549999952 0.02261270024)
(0.005152700003 -0.008500000462 0.02261270024)
(0.004706370179 0.02549999952 0.02227289975)
(0.004706370179 -0.008500000462 0.02227289975)
(0.004275760148 -0.008500000462 0.02191339992)
(0.004275760148 0.02549999952 0.02191339992)
(0.003861719975 0.02549999952 0.02153489925)
(0.003465069924 0.02549999952 0.02113829926)
(0.003861719975 -0.008500000462 0.02153489925)
(0.003086609999 0.02549999952 0.0207243003)
(0.003465069924 -0.008500000462 0.02113829926)
(0.003086609999 -0.008500000462 0.0207243003)
(0.002727109939 0.02549999952 0.02029360086)
(0.002387289889 0.02549999952 0.0198472999)
(0.002727109939 -0.008500000462 0.02029360086)
(0.002387289889 -0.008500000462 0.0198472999)
(0.00206783996 0.02549999952 0.01938620023)
(0.00206783996 -0.008500000462 0.01938620023)
(0.001769389957 0.02549999952 0.01891119964)
(0.001769389957 -0.008500000462 0.01891119964)
(0.001492560026 0.02549999952 0.01842340082)
(0.001492560026 -0.008500000462 0.01842340082)
(0.001237889985 0.02549999952 0.01792359911)
(0.001005899976 0.02549999952 0.01741280034)
(0.001237889985 -0.008500000462 0.01792359911)
(0.0007970649749 0.02549999952 0.01689220034)
(0.001005899976 -0.008500000462 0.01741280034)
(0.0006117949961 0.02549999952 0.01636270061)
(0.0007970649749 -0.008500000462 0.01689220034)
(0.0004504650133 0.02549999952 0.01582550071)
(0.0006117949961 -0.008500000462 0.01636270061)
(0.0004504650133 -0.008500000462 0.01582550071)
(0.0003133999999 0.02549999952 0.01528150029)
(0.0002008799929 0.02549999952 0.01473200042)
(0.0003133999999 -0.008500000462 0.01528150029)
(0.0001131289973 0.02549999952 0.01417789981)
(0.0002008799929 -0.008500000462 0.01473200042)
(5.031950059e-05 0.02549999952 0.01362050045)
(0.0001131289973 -0.008500000462 0.01417789981)
(1.258470002e-05 0.02549999952 0.0130607998)
(5.031950059e-05 -0.008500000462 0.01362050045)
(1.258470002e-05 -0.008500000462 0.0130607998)
(0 0.02549999952 0.01250000019)
(1.258470002e-05 0.02549999952 0.01193919964)
(0 -0.008500000462 0.01250000019)
(5.031950059e-05 0.02549999952 0.01137949992)
(1.258470002e-05 -0.008500000462 0.01193919964)
(0.0001131289973 0.02549999952 0.01082209963)
(5.031950059e-05 -0.008500000462 0.01137949992)
(0.0001131289973 -0.008500000462 0.01082209963)
(0.0002008799929 0.02549999952 0.01026809961)
(0.0003133999999 0.02549999952 0.009718500078)
(0.0002008799929 -0.008500000462 0.01026809961)
(0.0004504650133 0.02549999952 0.009174549952)
(0.0003133999999 -0.008500000462 0.009718500078)
(0.0006117949961 0.02549999952 0.008637299761)
(0.0004504650133 -0.008500000462 0.009174549952)
(0.0007970649749 0.02549999952 0.008107800037)
(0.0006117949961 -0.008500000462 0.008637299761)
(0.0007970649749 -0.008500000462 0.008107800037)
(0.001005899976 0.02549999952 0.007587200031)
(0.001237889985 0.02549999952 0.007076450158)
(0.001005899976 -0.008500000462 0.007587200031)
(0.001237889985 -0.008500000462 0.007076450158)
(0.001492560026 0.02549999952 0.006576649845)
(0.001492560026 -0.008500000462 0.006576649845)
(0.001769389957 0.02549999952 0.006088749971)
(0.001769389957 -0.008500000462 0.006088749971)
(0.00206783996 0.02549999952 0.005613800138)
(0.00206783996 -0.008500000462 0.005613800138)
(0.002387289889 -0.008500000462 0.005152700003)
(0.002387289889 0.02549999952 0.005152700003)
(0.002727109939 0.02549999952 0.004706370179)
(0.002727109939 -0.008500000462 0.004706370179)
(0.003086609999 0.02549999952 0.004275760148)
(0.003465069924 0.02549999952 0.003861719975)
(0.003086609999 -0.008500000462 0.004275760148)
(0.003861719975 0.02549999952 0.003465069924)
(0.003465069924 -0.008500000462 0.003861719975)
(0.004275760148 0.02549999952 0.003086609999)
(0.003861719975 -0.008500000462 0.003465069924)
(0.004706370179 0.02549999952 0.002727109939)
(0.004275760148 -0.008500000462 0.003086609999)
(0.005152700003 0.02549999952 0.002387289889)
(0.004706370179 -0.008500000462 0.002727109939)
(0.005152700003 -0.008500000462 0.002387289889)
(0.005613800138 0.02549999952 0.00206783996)
(0.006088749971 0.02549999952 0.001769389957)
(0.005613800138 -0.008500000462 0.00206783996)
(0.006088749971 -0.008500000462 0.001769389957)
(0.006576649845 0.02549999952 0.001492560026)
(0.007076450158 0.02549999952 0.001237889985)
(0.006576649845 -0.008500000462 0.001492560026)
(0.007587200031 0.02549999952 0.001005899976)
(0.007076450158 -0.008500000462 0.001237889985)
)


280
(
(0 1)
(2 3)
(1 4)
(5 2)
(6 7)
(4 8)
(9 5)
(10 11)
(7 12)
(13 9)
(14 10)
(8 15)
(15 16)
(12 17)
(18 13)
(19 14)
(16 20)
(21 19)
(22 18)
(17 23)
(20 24)
(25 22)
(26 21)
(23 27)
(24 28)
(29 25)
(30 26)
(27 31)
(31 32)
(33 29)
(28 34)
(35 30)
(36 33)
(34 37)
(38 35)
(39 36)
(32 40)
(37 41)
(42 39)
(43 38)
(41 44)
(40 45)
(45 46)
(47 42)
(48 43)
(49 47)
(44 50)
(50 51)
(52 48)
(46 53)
(54 49)
(51 55)
(56 52)
(53 57)
(58 54)
(55 59)
(60 56)
(57 61)
(62 58)
(59 63)
(64 62)
(65 60)
(61 66)
(63 67)
(68 64)
(67 69)
(70 65)
(66 71)
(71 72)
(73 68)
(69 74)
(75 70)
(76 73)
(74 77)
(78 75)
(72 79)
(80 76)
(77 81)
(79 82)
(83 78)
(84 80)
(82 85)
(81 86)
(86 87)
(88 84)
(89 83)
(87 90)
(85 91)
(92 88)
(93 89)
(90 94)
(95 92)
(91 96)
(96 97)
(98 93)
(94 99)
(100 95)
(101 98)
(99 102)
(103 100)
(104 101)
(97 105)
(105 106)
(102 107)
(108 103)
(106 109)
(107 110)
(111 104)
(112 108)
(110 113)
(114 111)
(115 112)
(109 116)
(116 117)
(118 115)
(119 114)
(113 120)
(120 121)
(122 119)
(123 118)
(124 123)
(117 125)
(121 126)
(125 127)
(128 122)
(129 124)
(126 130)
(131 128)
(132 129)
(130 133)
(134 131)
(127 135)
(135 136)
(137 132)
(133 138)
(139 134)
(140 137)
(136 141)
(138 142)
(143 140)
(144 139)
(142 145)
(146 143)
(147 144)
(145 148)
(141 149)
(149 150)
(151 146)
(148 152)
(153 147)
(154 151)
(155 153)
(150 156)
(156 157)
(158 154)
(152 159)
(159 6)
(11 158)
(160 155)
(161 160)
(157 162)
(162 163)
(164 161)
(163 165)
(166 164)
(167 166)
(165 168)
(168 169)
(170 167)
(171 170)
(169 172)
(172 173)
(174 171)
(173 175)
(176 174)
(175 177)
(178 176)
(179 178)
(177 180)
(180 181)
(182 179)
(181 183)
(184 182)
(183 185)
(186 184)
(185 187)
(188 186)
(189 188)
(187 190)
(190 191)
(191 192)
(193 189)
(192 194)
(195 193)
(196 195)
(194 197)
(197 198)
(199 196)
(200 199)
(198 201)
(202 200)
(201 203)
(204 202)
(203 205)
(206 204)
(207 208)
(209 206)
(205 207)
(208 210)
(211 209)
(210 212)
(213 211)
(212 214)
(215 213)
(216 215)
(214 217)
(217 218)
(219 216)
(218 220)
(221 219)
(220 222)
(223 221)
(222 224)
(225 223)
(226 225)
(224 227)
(227 228)
(229 226)
(228 230)
(231 229)
(230 232)
(233 231)
(234 233)
(232 235)
(235 236)
(237 234)
(236 238)
(239 237)
(238 240)
(241 239)
(240 242)
(243 241)
(244 243)
(242 245)
(245 246)
(247 244)
(248 247)
(246 249)
(250 248)
(249 251)
(252 250)
(251 253)
(254 252)
(255 254)
(253 256)
(256 257)
(258 255)
(257 259)
(259 260)
(261 258)
(260 262)
(263 261)
(262 264)
(265 263)
(264 266)
(267 265)
(266 268)
(269 267)
(270 269)
(268 271)
(271 272)
(273 270)
(274 273)
(272 275)
(275 276)
(277 274)
(276 278)
(279 277)
(278 0)
(3 279)
)

0 0 0 280 280 280 280

468
(
(-0.3302631991 0 -0.9438888808)
(-0 1 -0)
(-0.3723049327 0 -0.928110466)
(0 -1 0)
(-0.2876012554 0 -0.9577502377)
(-0 1 -0)
(-0.3302631991 0 -0.9438888808)
(0.99974766 -0 0.02246366518)
(0 1 0)
(-0.2443430207 0 -0.9696888616)
(-0.2876012554 0 -0.9577502377)
(0 -1 0)
(0.99974766 0 0.02246366518)
(0 -1 0)
(0.9977391856 -0 0.06720504087)
(-0.2443430207 0 -0.9696888616)
(0.9977391856 0 0.06720504087)
(-0.2005706156 0 -0.9796792476)
(-0 1 -0)
(-0.1564449199 0 -0.9876866847)
(0.9937131506 -0 0.1119561268)
(0 1 0)
(-0.2005706156 0 -0.9796792476)
(0 -1 0)
(0.9937131506 0 0.1119561268)
(0 -1 0)
(-0.1119742777 0 -0.9937111055)
(-0 1 -0)
(0.9876771972 0 0.1565048053)
(0 -1 0)
(-0.1564449199 0 -0.9876866847)
(0.9876771972 -0 0.1565048053)
(0 1 0)
(-0.0672670186 0 -0.997735009)
(-0.1119742777 0 -0.9937111055)
(0 -1 0)
(0.9796790947 0 0.2005713626)
(0.9796790947 -0 0.2005713626)
(-0.02243495058 0 -0.9997483048)
(0 1 -0)
(-0.0672670186 0 -0.997735009)
(0.9696794383 0 0.2443804144)
(0 -1 0)
(0.9696794383 -0 0.2443804144)
(0 1 0)
(0.9577577997 -0 0.2875760719)
(0 1 0)
(-0.02243495058 -5.100833355e-17 -0.9997483048)
(-0 -1 0)
(0.02243498781 -5.10083335e-17 -0.999748304)
(0.9577577997 -0 0.2875760719)
(0 -1 0)
(0.02243498781 0 -0.999748304)
(0.06726690718 0 -0.9977350165)
(0 1 -0)
(0.9439282728 0 0.3301505957)
(0 -1 0)
(0.06726690718 0 -0.9977350165)
(0 -1 0)
(0.9439282728 -0 0.3301505957)
(0 1 0)
(0.1119744624 0 -0.9937110847)
(0 1 -0)
(0.1119744624 0 -0.9937110847)
(0 -1 0)
(0.9280696569 0 0.3724066485)
(0.1564172162 0 -0.9876910724)
(0.9280696569 -0 0.3724066485)
(0.9104882139 -0 0.4135350195)
(0 1 0)
(0.1564172162 0 -0.9876910724)
(0.9104882139 -0 0.4135350195)
(0 -1 0)
(0.2006055254 0 -0.9796720998)
(0 -1 0)
(0.2006055254 0 -0.9796720998)
(0 1 -0)
(0.2443217803 0 -0.9696942135)
(0 1 -0)
(0.8909789264 0 0.4540446593)
(0.8909789264 -0 0.4540446593)
(0.2443217803 0 -0.9696942135)
(-0 -1 0)
(0.2876259526 0 -0.9577428211)
(0 1 -0)
(0.8697307237 0 0.4935265629)
(0 -1 0)
(0.8697307237 -0 0.4935265629)
(0 1 0)
(0.2876259526 0 -0.9577428211)
(0 -1 0)
(0.3302631991 0 -0.9438888808)
(0.8466941589 0 0.5320798824)
(0 -1 0)
(0.8466941589 -0 0.5320798824)
(0 1 0)
(0.3302631991 0 -0.9438888808)
(0.3723049327 0 -0.928110466)
(0 1 -0)
(0.3723049327 0 -0.928110466)
(-0 -1 0)
(0.8220452427 0 0.5694221798)
(0 -1 0)
(0.8220452427 -0 0.5694221798)
(0 1 0)
(0.4135203975 0 -0.9104948549)
(0 1 -0)
(0.4135203975 0 -0.9104948549)
(0 -1 0)
(0.454002318 0 -0.8910005024)
(0.7956364944 0 0.6057743547)
(0 -1 0)
(0.7956364944 -0 0.6057743547)
(0 1 0)
(0.7677094105 -0 0.6407981437)
(0.454002318 0 -0.8910005024)
(0.4935665986 0 -0.8697080043)
(0 1 -0)
(0.7677094105 -0 0.6407981437)
(0.4935665986 0 -0.8697080043)
(0 -1 0)
(0.5320159096 0 -0.8467343573)
(0.7380400566 0 0.6747569005)
(0 -1 0)
(0.7380400566 -0 0.6747569005)
(0 1 0)
(0.5320159096 0 -0.8467343573)
(0.5694836045 0 -0.8220026911)
(0 1 -0)
(0.7071067812 -0 0.7071067812)
(0 1 0)
(0.7071067812 0 0.7071067812)
(-0 -1 -0)
(0.5694836045 0 -0.8220026911)
(0 -1 0)
(0.6747569005 -0 0.7380400566)
(0 1 0)
(0.6057964257 0 -0.7956196897)
(0.6407983883 0 -0.7677092063)
(0 1 -0)
(0.6057964257 0 -0.7956196897)
(0.6747569005 0 0.7380400566)
(-0 -1 -0)
(0.674717332 0 -0.7380762305)
(0 1 0)
(0.6407981437 -0 0.7677094105)
(0 1 0)
(0.6407983883 0 -0.7677092063)
(-0 -1 0)
(0.6407981437 0 0.7677094105)
(0 -1 0)
(0.7071514022 0 -0.7070621573)
(0 1 -0)
(0.674717332 0 -0.7380762305)
(0 -1 0)
(0.6057743547 -0 0.7956364944)
(0.5694221798 -0 0.8220452427)
(0 1 0)
(0.6057743547 0 0.7956364944)
(0.7380735033 0 -0.6747203152)
(0.7071514022 0 -0.7070621573)
(0 -1 0)
(0.5694221798 -0 0.8220452427)
(0 -1 0)
(0.7676439595 0 -0.6408765493)
(0 1 -0)
(0.7380735033 0 -0.6747203152)
(0.5320798824 0 0.8466941589)
(0 -1 0)
(0.5320798824 -0 0.8466941589)
(0 1 0)
(0.4935265629 -0 0.8697307237)
(0 1 0)
(0.7956553805 0 -0.6057495484)
(0 1 -0)
(0.7676439595 0 -0.6408765493)
(0 -1 0)
(0.4540446593 -0 0.8909789264)
(0 1 0)
(0.8220455119 0 -0.5694217912)
(0.4935265629 -0 0.8697307237)
(0 -1 0)
(0.7956553805 0 -0.6057495484)
(0 -1 0)
(0.8466685417 0 -0.5321206447)
(0 1 -0)
(0.4540446593 -0 0.8909789264)
(0 -1 0)
(0.8220455119 0 -0.5694217912)
(0.4135350195 -0 0.9104882139)
(0.3724066485 -0 0.9280696569)
(0 1 0)
(0.8466685417 0 -0.5321206447)
(0 -1 0)
(0.4135350195 0 0.9104882139)
(0.8697745962 0 -0.4934492393)
(0.890978413 0 -0.4540456667)
(0 1 -0)
(0.3724066485 -0 0.9280696569)
(0 -1 0)
(0.8697745962 0 -0.4934492393)
(0.890978413 0 -0.4540456667)
(0 -1 0)
(0.3301505957 -0 0.9439282728)
(0 1 0)
(0.9104733079 0 -0.4135678367)
(0 1 -0)
(0.2875760719 -0 0.9577577997)
(0.3301505957 0 0.9439282728)
(0 -1 0)
(0.9104733079 0 -0.4135678367)
(0 -1 0)
(0.9280696569 0 -0.3724066485)
(0.2875760719 -0 0.9577577997)
(0.9280696569 0 -0.3724066485)
(0.9439282728 0 -0.3301505957)
(0 1 -0)
(0.2443804144 0 0.9696794383)
(0 -1 0)
(0.2443804144 -0 0.9696794383)
(0 1 0)
(0.2005713626 -0 0.9796790947)
(0 1 0)
(0.9439282728 0 -0.3301505957)
(0 -1 0)
(0.9577652139 0 -0.2875513782)
(0 1 -0)
(0.2005713626 -0 0.9796790947)
(0 -1 0)
(0.9577652139 0 -0.2875513782)
(0 -1 0)
(0.1565048053 -0 0.9876771972)
(0.9696740839 0 -0.2444016592)
(0.9696740839 0 -0.2444016592)
(0.1565048053 -0 0.9876771972)
(0.97968624 0 -0.2005364583)
(0 1 -0)
(0.97968624 0 -0.2005364583)
(0 -1 0)
(0.1119561268 0 0.9937131506)
(0 -1 0)
(0.9876728046 0 -0.1565325237)
(0.1119561268 -0 0.9937131506)
(0 1 0)
(0.06720504087 -0 0.9977391856)
(0 1 0)
(0.9876728046 0 -0.1565325237)
(0.9937131714 0 -0.1119559421)
(0 1 0)
(0.06720504087 -0 0.9977391856)
(0 -1 0)
(0.9937131714 0 -0.1119559421)
(0 -1 0)
(0.02246366518 0 0.99974766)
(0.02246366518 -0 0.99974766)
(-0.02246362789 0 0.9997476609)
(0 1 0)
(0.9977391781 0 -0.06720515219)
(0 -1 0)
(0.9977391781 0 -0.06720515219)
(0 1 0)
(0.9997476609 0 -0.02246362789)
(0 1 0)
(0.9997476609 0 -0.02246362789)
(0 -1 0)
(-0.02246362789 0 0.9997476609)
(0 -1 0)
(-0.06720515219 0 0.9977391781)
(-0.06720515219 0 0.9977391781)
(-0.1119559421 0 0.9937131714)
(0 1 0)
(-0.1119559421 0 0.9937131714)
(0 -1 0)
(-0.1565325237 0 0.9876728046)
(0 1 0)
(-0.1565325237 0 0.9876728046)
(0 -1 0)
(-0.2005364583 0 0.97968624)
(-0.2005364583 0 0.97968624)
(-0.2444016592 0 0.9696740839)
(0 1 0)
(-0.2444016592 0 0.9696740839)
(0 -1 0)
(-0.2875513782 0 0.9577652139)
(0 -1 0)
(-0.2875513782 0 0.9577652139)
(0 1 0)
(-0.3301505957 0 0.9439282728)
(0 1 0)
(-0.3301505957 0 0.9439282728)
(0 -1 0)
(-0.3724066485 0 0.9280696569)
(0 1 0)
(-0.3724066485 0 0.9280696569)
(0 -1 0)
(-0.4135678367 0 0.9104733079)
(0 1 0)
(-0.4135678367 0 0.9104733079)
(0 -1 0)
(-0.4540456667 0 0.890978413)
(-0.4540456667 0 0.890978413)
(-0.4934492393 0 0.8697745962)
(0 1 0)
(-0.4934492393 0 0.8697745962)
(0 -1 0)
(-0.5321206447 0 0.8466685417)
(-0.5321206447 0 0.8466685417)
(-0.5694217912 0 0.8220455119)
(0 1 0)
(-0.5694217912 0 0.8220455119)
(0 -1 0)
(-0.6057495484 0 0.7956553805)
(0 1 0)
(-0.6057495484 0 0.7956553805)
(0 -1 0)
(-0.6408765493 0 0.7676439595)
(-0.6408765493 0 0.7676439595)
(-0.6747203152 0 0.7380735033)
(0 1 0)
(-0.7070621573 0 0.7071514022)
(0 1 0)
(-0.6747203152 0 0.7380735033)
(0 -1 0)
(-0.7380762305 0 0.674717332)
(-0.7070621573 0 0.7071514022)
(0 -1 0)
(-0.7380762305 0 0.674717332)
(-0.7677092063 0 0.6407983883)
(0 1 0)
(-0.7956196897 0 0.6057964257)
(0 1 0)
(-0.7677092063 0 0.6407983883)
(0 -1 0)
(-0.7956196897 0 0.6057964257)
(0 -1 -0)
(-0.8220026911 0 0.5694836045)
(0 1 0)
(-0.8220026911 0 0.5694836045)
(0 -1 0)
(-0.8467343573 0 0.5320159096)
(-0.8467343573 0 0.5320159096)
(-0.8697080043 0 0.4935665986)
(0 1 0)
(-0.8697080043 0 0.4935665986)
(0 -1 0)
(-0.9104948549 0 0.4135203975)
(0 1 0)
(-0.8910005024 0 0.454002318)
(-0.8910005024 0 0.454002318)
(-0.928110466 0 0.3723049327)
(-0 1 0)
(-0.9104948549 0 0.4135203975)
(0 -1 0)
(-0.9438888808 0 0.3302631991)
(0 1 0)
(-0.928110466 0 0.3723049327)
(0 -1 0)
(-0.9577428211 0 0.2876259526)
(0 1 0)
(-0.9438888808 0 0.3302631991)
(0 -1 -0)
(-0.9577428211 0 0.2876259526)
(0 -1 0)
(-0.9696942135 0 0.2443217803)
(-0.9796720998 0 0.2006055254)
(0 1 0)
(-0.9696942135 0 0.2443217803)
(-0.9876910724 0 0.1564172162)
(-0.9796720998 0 0.2006055254)
(0 -1 0)
(-0.9937110847 0 0.1119744624)
(0 1 0)
(-0.9876910724 0 0.1564172162)
(-0.9977350165 0 0.06726690718)
(-0.9937110847 0 0.1119744624)
(0 -1 0)
(-0.9977350165 0 0.06726690718)
(-0.999748304 0 0.02243498781)
(0 1 0)
(-0.9997483048 0 -0.02243495058)
(0 1 -0)
(-0.999748304 0 0.02243498781)
(0 -1 0)
(-0.997735009 0 -0.0672670186)
(0 1 -0)
(-0.9997483048 0 -0.02243495058)
(0 -1 0)
(-0.9937111055 0 -0.1119742777)
(0 1 0)
(-0.997735009 0 -0.0672670186)
(0 -1 0)
(-0.9937111055 0 -0.1119742777)
(0 -1 0)
(-0.9876866847 0 -0.1564449199)
(0 1 0)
(-0.9796792476 0 -0.2005706156)
(-0.9876866847 0 -0.1564449199)
(0 -1 0)
(-0.9696888616 0 -0.2443430207)
(0 1 0)
(-0.9796792476 0 -0.2005706156)
(-0.9577502377 0 -0.2876012554)
(-0.9696888616 0 -0.2443430207)
(0 -1 0)
(-0.9438888808 0 -0.3302631991)
(0 1 0)
(-0.9577502377 0 -0.2876012554)
(-0.9438888808 0 -0.3302631991)
(0 -1 0)
(-0.928110466 0 -0.3723049327)
(0 1 0)
(-0.9104799499 0 -0.413553214)
(0 1 0)
(-0.928110466 0 -0.3723049327)
(0 -1 0)
(-0.9104799499 0 -0.413553214)
(0 -1 0)
(-0.890999989 0 -0.4540033255)
(0 1 0)
(-0.890999989 0 -0.4540033255)
(0 -1 0)
(-0.8697518829 0 -0.4934892727)
(0 1 0)
(-0.8697518829 0 -0.4934892727)
(0 -1 0)
(-0.846708745 0 -0.532056671)
(-0.846708745 0 -0.532056671)
(-0.8220029603 0 -0.5694832159)
(0 -1 0)
(-0.8220029603 0 -0.5694832159)
(0 1 0)
(-0.7956385768 0 -0.6057716196)
(-0.7956385768 0 -0.6057716196)
(-0.7676437553 0 -0.6408767938)
(0 1 0)
(-0.7381096749 0 -0.6746807451)
(-0.7676437553 0 -0.6408767938)
(0 -1 0)
(-0.7071067812 0 -0.7071067812)
(-0 1 -0)
(-0.7381096749 0 -0.6746807451)
(-0.6746807451 0 -0.7381096749)
(-0.7071067812 0 -0.7071067812)
(0 -1 0)
(-0.6408767938 0 -0.7676437553)
(-0 1 -0)
(-0.6746807451 0 -0.7381096749)
(-0.6057716196 0 -0.7956385768)
(-0.6408767938 0 -0.7676437553)
(0 -1 0)
(-0.6057716196 0 -0.7956385768)
(-0.5694832159 0 -0.8220029603)
(-0 1 -0)
(-0.532056671 0 -0.846708745)
(-0.5694832159 0 -0.8220029603)
(0 -1 0)
(-0.532056671 0 -0.846708745)
(-0.4934892727 0 -0.8697518829)
(-0 1 -0)
(-0.4540033255 0 -0.890999989)
(-0 1 -0)
(-0.4934892727 0 -0.8697518829)
(0 -1 0)
(-0.413553214 0 -0.9104799499)
(-0.4540033255 0 -0.890999989)
(0 -1 0)
(-0.3723049327 0 -0.928110466)
(-0.413553214 0 -0.9104799499)
)


280
(
2(0 1)
2(2 3)
2(4 5)
2(6 3)
2(7 8)
2(9 5)
2(10 11)
2(12 13)
2(14 8)
2(15 11)
2(16 13)
2(17 18)
2(19 18)
2(20 21)
2(22 23)
2(24 25)
2(26 27)
2(28 29)
2(30 23)
2(31 32)
2(33 27)
2(34 35)
2(36 29)
2(37 32)
2(38 39)
2(40 35)
2(41 42)
2(43 44)
2(45 46)
2(47 48)
2(49 39)
2(50 51)
2(52 48)
2(53 54)
2(55 56)
2(57 58)
2(59 60)
2(61 62)
2(63 64)
2(65 56)
2(66 62)
2(67 60)
2(68 69)
2(70 64)
2(71 72)
2(73 74)
2(75 76)
2(77 78)
2(79 72)
2(80 69)
2(81 82)
2(83 84)
2(85 86)
2(87 88)
2(89 90)
2(91 84)
2(92 93)
2(94 95)
2(96 90)
2(97 98)
2(99 100)
2(101 102)
2(103 104)
2(105 106)
2(107 108)
2(109 106)
2(110 111)
2(112 113)
2(114 113)
2(115 108)
2(116 117)
2(118 111)
2(119 120)
2(121 117)
2(122 123)
2(124 125)
2(126 120)
2(127 128)
2(129 130)
2(131 132)
2(133 134)
2(135 136)
2(137 128)
2(138 139)
2(140 134)
2(141 142)
2(143 144)
2(145 146)
2(147 148)
2(149 150)
2(151 152)
2(153 154)
2(155 146)
2(156 157)
2(158 150)
2(159 152)
2(160 161)
2(162 163)
2(164 165)
2(166 161)
2(167 168)
2(169 170)
2(171 172)
2(173 174)
2(175 176)
2(177 178)
2(179 174)
2(180 181)
2(182 183)
2(184 185)
2(186 187)
2(188 183)
2(189 178)
2(190 191)
2(192 193)
2(194 187)
2(195 185)
2(196 197)
2(198 199)
2(200 193)
2(201 202)
2(203 204)
2(205 206)
2(207 204)
2(208 209)
2(210 211)
2(212 206)
2(213 209)
2(214 211)
2(215 216)
2(217 218)
2(219 220)
2(221 222)
2(223 224)
2(225 226)
2(227 228)
2(229 230)
2(231 222)
2(232 226)
2(233 230)
2(234 228)
2(235 236)
2(237 238)
2(239 240)
2(241 236)
2(242 243)
2(244 245)
2(246 238)
2(247 248)
2(249 250)
2(251 252)
2(253 250)
2(254 245)
2(255 256)
2(257 258)
2(259 260)
2(261 262)
2(263 264)
2(265 266)
2(267 266)
2(268 256)
2(269 270)
2(271 272)
2(273 274)
2(275 276)
2(277 276)
2(278 274)
2(279 280)
2(281 282)
2(283 284)
2(285 286)
2(287 288)
2(289 290)
2(291 292)
2(293 294)
2(295 296)
2(297 298)
2(299 298)
2(300 296)
2(301 302)
2(303 304)
2(305 302)
2(306 304)
2(307 308)
2(309 310)
2(311 312)
2(313 314)
2(315 314)
2(316 312)
2(317 318)
2(319 320)
2(321 322)
2(323 320)
2(324 325)
2(326 325)
2(327 328)
2(329 330)
2(331 332)
2(333 334)
2(335 336)
2(337 338)
2(339 336)
2(340 338)
2(341 342)
2(343 344)
2(345 346)
2(347 344)
2(348 342)
2(349 350)
2(351 352)
2(353 354)
2(355 356)
2(357 358)
2(359 360)
2(361 362)
2(363 358)
2(364 365)
2(366 362)
2(367 365)
2(368 369)
2(370 371)
2(372 369)
2(373 371)
2(374 375)
2(376 375)
2(377 378)
2(379 380)
2(381 382)
2(383 384)
2(385 386)
2(387 388)
2(389 390)
2(391 392)
2(393 394)
2(395 394)
2(396 397)
2(398 399)
2(400 397)
2(401 399)
2(402 403)
2(404 405)
2(406 403)
2(407 408)
2(409 410)
2(411 412)
2(413 414)
2(415 416)
2(417 418)
2(419 420)
2(421 422)
2(423 424)
2(425 422)
2(426 424)
2(427 428)
2(429 430)
2(431 430)
2(432 428)
2(433 434)
2(435 434)
2(436 437)
2(438 439)
2(440 437)
2(441 439)
2(442 443)
2(444 445)
2(446 443)
2(447 445)
2(448 449)
2(450 449)
2(451 452)
2(453 452)
2(454 455)
2(456 455)
2(457 458)
2(459 460)
2(461 462)
2(463 460)
2(464 465)
2(466 1)
2(467 465)
)


0
(
)

0()


// ************************************************************************* //
