/*--------------------------------*- C++ -*----------------------------------*\
| =========                 |                                                 |
| \\      /  F ield         | OpenFOAM: The Open Source CFD Toolbox           |
|  \\    /   O peration     | Version:  2.1.x                                 |
|   \\  /    A nd           | Web:      www.OpenFOAM.org                      |
|    \\/     M anipulation  |                                                 |
\*---------------------------------------------------------------------------*/
FoamFile
{
    version     2.0;
    format      ascii;
    class       polyBoundaryMesh;
    location    "constant/polyMesh";
    object      boundary;
}
// * * * * * * * * * * * * * * * * * * * * * * * * * * * * * * * * * * * * * //

3
(
    top
    {
        type            wall;
        nFaces          2828;
        startFace       415372;
    }
    dominio_ascii
    {
        type            wall;
        nFaces          8400;
        startFace       418200;
    }
    region0_to_wallFilmRegion_wallFilmFaces
    {
        type            mappedWall;
        nFaces          2828;
        startFace       426600;
        sampleMode      nearestPatchFace;
        sampleRegion    wallFilmRegion;
        samplePatch     region0_to_wallFilmRegion_wallFilmFaces;
        offsetMode      nonuniform;
        offsets         nonuniform List<vector> 
2828
(
(-5.421010862e-20 -0 -0)
(2.710505431e-20 -0 -0)
(-0 -0 -1.734723476e-18)
(-2.710505431e-20 -0 -1.734723476e-18)
(-0 -0 3.469446952e-18)
(-0 -0 -0)
(-2.168404345e-19 -0 -3.469446952e-18)
(1.084202172e-19 -0 1.734723476e-18)
(1.084202172e-19 -0 -0)
(-0 -0 -3.469446952e-18)
(-2.168404345e-19 -0 -3.469446952e-18)
(2.168404345e-19 -0 -1.734723476e-18)
(-2.168404345e-19 -0 -3.469446952e-18)
(1.084202172e-19 -0 -1.734723476e-18)
(2.168404345e-19 -0 -0)
(-2.168404345e-19 -0 -3.469446952e-18)
(-0 -0 -0)
(-0 -0 -0)
(-0 -0 -0)
(-2.168404345e-19 -0 -1.734723476e-18)
(-0 -0 -0)
(-6.505213035e-19 -0 -0)
(-2.168404345e-19 -0 -0)
(-6.505213035e-19 -0 -0)
(-4.33680869e-19 -0 1.734723476e-18)
(-4.33680869e-19 -0 -3.469446952e-18)
(-2.168404345e-19 -0 -0)
(-4.33680869e-19 -0 -1.734723476e-18)
(-2.168404345e-19 -0 -0)
(-0 -0 -3.469446952e-18)
(2.168404345e-19 -0 -0)
(-0 -0 -0)
(2.168404345e-19 -0 -3.469446952e-18)
(-8.67361738e-19 -0 -8.67361738e-19)
(-0 -0 -8.67361738e-19)
(-4.33680869e-19 -0 -8.67361738e-19)
(-0 -0 3.469446952e-18)
(-0 -0 1.734723476e-18)
(-4.33680869e-19 -0 -1.734723476e-18)
(4.33680869e-19 -0 1.734723476e-18)
(-0 -0 1.734723476e-18)
(-0 -0 -0)
(-0 -0 -0)
(-0 -0 1.734723476e-18)
(-0 -0 3.469446952e-18)
(-0 -0 1.734723476e-18)
(-0 -0 -0)
(-0 -0 -0)
(4.33680869e-19 -0 -0)
(4.33680869e-19 -0 3.469446952e-18)
(-4.33680869e-19 -0 -0)
(-0 -0 3.469446952e-18)
(-4.33680869e-19 -0 -0)
(-4.33680869e-19 -0 -0)
(-4.33680869e-19 -0 -1.734723476e-18)
(-4.33680869e-19 -0 -8.67361738e-19)
(-4.33680869e-19 -0 8.67361738e-19)
(-1.301042607e-18 -0 -3.469446952e-18)
(-8.67361738e-19 -0 -0)
(-8.67361738e-19 -0 -1.734723476e-18)
(-1.301042607e-18 -0 -1.734723476e-18)
(4.33680869e-19 -0 -1.734723476e-18)
(-0 -0 -1.734723476e-18)
(4.33680869e-19 -0 1.734723476e-18)
(-4.33680869e-19 -0 -1.734723476e-18)
(-0 -0 -1.734723476e-18)
(-8.67361738e-19 -0 -0)
(4.33680869e-19 -0 -0)
(-0 -0 -0)
(8.67361738e-19 -0 -3.469446952e-18)
(-4.33680869e-19 -0 3.469446952e-18)
(-0 -0 -0)
(-0 -0 -0)
(-0 -0 4.33680869e-19)
(-8.67361738e-19 -0 -8.67361738e-19)
(-0 -0 -0)
(-8.67361738e-19 -0 -8.67361738e-19)
(-0 -0 -8.67361738e-19)
(8.67361738e-19 -0 8.67361738e-19)
(-8.67361738e-19 -0 1.734723476e-18)
(8.67361738e-19 -0 -0)
(-8.67361738e-19 -0 -1.734723476e-18)
(-0 -0 -1.734723476e-18)
(-8.67361738e-19 -0 -1.734723476e-18)
(-0 -0 -0)
(8.67361738e-19 -0 3.469446952e-18)
(-0 -0 1.734723476e-18)
(-0 -0 3.469446952e-18)
(-0 -0 6.938893904e-18)
(-0 -0 -0)
(8.67361738e-19 -0 3.469446952e-18)
(-0 -0 -0)
(1.734723476e-18 -0 -0)
(-8.67361738e-19 -0 -6.938893904e-18)
(-0 -0 -3.469446952e-18)
(-0 -0 -0)
(-1.734723476e-18 -0 -1.301042607e-18)
(-8.67361738e-19 -0 -0)
(-1.734723476e-18 -0 -1.734723476e-18)
(-1.734723476e-18 -0 -0)
(8.67361738e-19 -0 -0)
(-8.67361738e-19 -0 -8.67361738e-19)
(8.67361738e-19 -0 -0)
(-8.67361738e-19 -0 -1.734723476e-18)
(-0 -0 -0)
(-0 -0 -0)
(8.67361738e-19 -0 -1.734723476e-18)
(-0 -0 -0)
(-8.67361738e-19 -0 -0)
(8.67361738e-19 -0 3.469446952e-18)
(-8.67361738e-19 -0 -3.469446952e-18)
(-8.67361738e-19 -0 -5.204170428e-18)
(-0 -0 3.469446952e-18)
(-0 -0 -0)
(-1.734723476e-18 -0 -6.938893904e-18)
(-0 -0 -3.469446952e-18)
(-0 -0 -0)
(-0 -0 -0)
(-0 -0 -3.469446952e-18)
(8.67361738e-19 -0 -3.469446952e-18)
(-0 -0 -0)
(-8.67361738e-19 -0 -0)
(-0 -0 -0)
(-1.734723476e-18 -0 -8.67361738e-19)
(-0 -0 -8.67361738e-19)
(-0 -0 -8.67361738e-19)
(-0 -0 -8.67361738e-19)
(-0 -0 -8.67361738e-19)
(-0 -0 1.734723476e-18)
(-1.734723476e-18 -0 -3.469446952e-18)
(-0 -0 -0)
(-8.67361738e-19 -0 -3.469446952e-18)
(-8.67361738e-19 -0 -1.734723476e-18)
(-8.67361738e-19 -0 -1.734723476e-18)
(8.67361738e-19 -0 -0)
(8.67361738e-19 -0 -0)
(-8.67361738e-19 -0 -3.469446952e-18)
(-0 -0 3.469446952e-18)
(-0 -0 3.469446952e-18)
(-1.734723476e-18 -0 -3.469446952e-18)
(-8.67361738e-19 -0 -0)
(-0 -0 3.469446952e-18)
(-8.67361738e-19 -0 -0)
(-0 -0 3.469446952e-18)
(1.734723476e-18 -0 3.469446952e-18)
(-8.67361738e-19 -0 6.938893904e-18)
(-0 -0 -0)
(8.67361738e-19 -0 4.33680869e-19)
(-1.734723476e-18 -0 -8.67361738e-19)
(-8.67361738e-19 -0 -8.67361738e-19)
(1.734723476e-18 -0 -0)
(-0 -0 8.67361738e-19)
(8.67361738e-19 -0 -0)
(-0 -0 -0)
(8.67361738e-19 -0 1.734723476e-18)
(-1.734723476e-18 -0 -0)
(-8.67361738e-19 -0 -1.734723476e-18)
(-8.67361738e-19 -0 -1.734723476e-18)
(-1.734723476e-18 -0 -3.469446952e-18)
(-8.67361738e-19 -0 -1.734723476e-18)
(-8.67361738e-19 -0 -5.204170428e-18)
(-8.67361738e-19 -0 1.734723476e-18)
(-8.67361738e-19 -0 -0)
(-0 -0 -0)
(-0 -0 3.469446952e-18)
(-8.67361738e-19 -0 -0)
(-1.734723476e-18 -0 -3.469446952e-18)
(-0 -0 -0)
(-0 -0 3.469446952e-18)
(-0 -0 -3.469446952e-18)
(8.67361738e-19 -0 3.469446952e-18)
(-8.67361738e-19 -0 -0)
(-0 -0 -0)
(-0 -0 -2.168404345e-19)
(-8.67361738e-19 -0 -4.33680869e-19)
(-8.67361738e-19 -0 -0)
(-0 -0 4.33680869e-19)
(-8.67361738e-19 -0 -1.734723476e-18)
(-0 -0 8.67361738e-19)
(-1.734723476e-18 -0 -1.734723476e-18)
(-0 -0 -1.734723476e-18)
(-3.469446952e-18 -0 -8.67361738e-19)
(-0 -0 -0)
(-0 -0 -0)
(-8.67361738e-19 -0 1.734723476e-18)
(-8.67361738e-19 -0 -0)
(-0 -0 -3.469446952e-18)
(8.67361738e-19 -0 -1.734723476e-18)
(1.734723476e-18 -0 3.469446952e-18)
(-0 -0 -1.734723476e-18)
(8.67361738e-19 -0 1.734723476e-18)
(-0 -0 -0)
(-0 -0 -0)
(-1.734723476e-18 -0 -3.469446952e-18)
(-3.469446952e-18 -0 -3.469446952e-18)
(-2.602085214e-18 -0 -6.938893904e-18)
(-1.734723476e-18 -0 3.469446952e-18)
(8.67361738e-19 -0 3.469446952e-18)
(-8.67361738e-19 -0 -0)
(-0 -0 -3.469446952e-18)
(-8.67361738e-19 -0 -3.469446952e-18)
(-0 -0 -2.168404345e-19)
(-0 -0 -2.168404345e-19)
(-1.734723476e-18 -0 -8.67361738e-19)
(-1.734723476e-18 -0 -8.67361738e-19)
(1.734723476e-18 -0 -1.734723476e-18)
(-0 -0 -8.67361738e-19)
(-3.469446952e-18 -0 -2.602085214e-18)
(-1.734723476e-18 -0 -2.602085214e-18)
(1.734723476e-18 -0 1.734723476e-18)
(-3.469446952e-18 -0 -1.734723476e-18)
(-1.734723476e-18 -0 -0)
(1.734723476e-18 -0 -1.734723476e-18)
(-1.734723476e-18 -0 1.734723476e-18)
(-0 -0 3.469446952e-18)
(1.734723476e-18 -0 -1.734723476e-18)
(-0 -0 -1.734723476e-18)
(-0 -0 -0)
(1.734723476e-18 -0 -3.469446952e-18)
(-0 -0 6.938893904e-18)
(-1.734723476e-18 -0 -3.469446952e-18)
(-1.734723476e-18 -0 -0)
(1.734723476e-18 -0 6.938893904e-18)
(-0 -0 -3.469446952e-18)
(3.469446952e-18 -0 -0)
(-1.734723476e-18 -0 -6.938893904e-18)
(-0 -0 -0)
(-0 -0 -0)
(-3.469446952e-18 -0 -3.469446952e-18)
(-1.734723476e-18 -0 -1.084202172e-19)
(-1.734723476e-18 -0 -6.505213035e-19)
(-3.469446952e-18 -0 -8.67361738e-19)
(-1.734723476e-18 -0 -0)
(-1.734723476e-18 -0 -8.67361738e-19)
(1.734723476e-18 -0 -0)
(-1.734723476e-18 -0 -1.734723476e-18)
(-0 -0 8.67361738e-19)
(-0 -0 -0)
(-0 -0 -1.734723476e-18)
(-0 -0 -0)
(1.734723476e-18 -0 1.734723476e-18)
(3.469446952e-18 -0 1.734723476e-18)
(-1.734723476e-18 -0 -1.734723476e-18)
(-1.734723476e-18 -0 1.734723476e-18)
(1.734723476e-18 -0 -3.469446952e-18)
(-1.734723476e-18 -0 -3.469446952e-18)
(1.734723476e-18 -0 5.204170428e-18)
(-3.469446952e-18 -0 -0)
(-0 -0 -3.469446952e-18)
(-1.734723476e-18 -0 3.469446952e-18)
(-3.469446952e-18 -0 -3.469446952e-18)
(3.469446952e-18 -0 -0)
(-0 -0 -0)
(-0 -0 -6.938893904e-18)
(-0 -0 -3.469446952e-18)
(-0 -0 3.469446952e-18)
(-0 -0 3.469446952e-18)
(-0 -0 -0)
(-1.734723476e-18 -0 -0)
(-0 -0 -4.33680869e-19)
(3.469446952e-18 -0 8.67361738e-19)
(-1.734723476e-18 -0 -4.33680869e-19)
(-3.469446952e-18 -0 -0)
(-1.734723476e-18 -0 -8.67361738e-19)
(1.734723476e-18 -0 -8.67361738e-19)
(-3.469446952e-18 -0 -1.734723476e-18)
(1.734723476e-18 -0 8.67361738e-19)
(-0 -0 1.734723476e-18)
(-1.734723476e-18 -0 -1.734723476e-18)
(-0 -0 -1.734723476e-18)
(-0 -0 -1.734723476e-18)
(1.734723476e-18 -0 1.734723476e-18)
(-0 -0 1.734723476e-18)
(-1.734723476e-18 -0 -0)
(3.469446952e-18 -0 1.734723476e-18)
(1.734723476e-18 -0 1.734723476e-18)
(3.469446952e-18 -0 -0)
(-0 -0 -0)
(-0 -0 3.469446952e-18)
(3.469446952e-18 -0 3.469446952e-18)
(-1.734723476e-18 -0 -0)
(-1.734723476e-18 -0 -0)
(-5.204170428e-18 -0 -6.938893904e-18)
(1.734723476e-18 -0 -0)
(-0 -0 -3.469446952e-18)
(-1.734723476e-18 -0 -3.469446952e-18)
(1.734723476e-18 -0 -3.469446952e-18)
(-3.469446952e-18 -0 -1.084202172e-19)
(-0 -0 -0)
(1.734723476e-18 -0 -2.168404345e-19)
(-0 -0 -0)
(-1.734723476e-18 -0 -4.33680869e-19)
(-3.469446952e-18 -0 -0)
(-1.734723476e-18 -0 -8.67361738e-19)
(-1.734723476e-18 -0 -8.67361738e-19)
(-1.734723476e-18 -0 8.67361738e-19)
(-1.734723476e-18 -0 -8.67361738e-19)
(-1.734723476e-18 -0 -1.734723476e-18)
(-0 -0 -1.734723476e-18)
(1.734723476e-18 -0 1.734723476e-18)
(-0 -0 -0)
(-0 -0 1.734723476e-18)
(-1.734723476e-18 -0 -0)
(-0 -0 3.469446952e-18)
(-5.204170428e-18 -0 -3.469446952e-18)
(-1.734723476e-18 -0 -3.469446952e-18)
(-1.734723476e-18 -0 -3.469446952e-18)
(-1.734723476e-18 -0 -3.469446952e-18)
(-0 -0 -3.469446952e-18)
(-3.469446952e-18 -0 -0)
(-3.469446952e-18 -0 -3.469446952e-18)
(-1.734723476e-18 -0 3.469446952e-18)
(-0 -0 -0)
(-0 -0 -0)
(1.734723476e-18 -0 -0)
(-1.734723476e-18 -0 -3.469446952e-18)
(-1.734723476e-18 -0 -3.469446952e-18)
(1.734723476e-18 -0 -5.421010862e-20)
(1.734723476e-18 -0 2.168404345e-19)
(-0 -0 -6.505213035e-19)
(-3.469446952e-18 -0 -4.33680869e-19)
(-3.469446952e-18 -0 -1.301042607e-18)
(3.469446952e-18 -0 8.67361738e-19)
(-3.469446952e-18 -0 -0)
(-0 -0 -1.734723476e-18)
(-0 -0 -0)
(-0 -0 -1.734723476e-18)
(-0 -0 -0)
(-3.469446952e-18 -0 -0)
(-1.734723476e-18 -0 -3.469446952e-18)
(1.734723476e-18 -0 -0)
(-0 -0 -1.734723476e-18)
(-1.734723476e-18 -0 1.734723476e-18)
(-1.734723476e-18 -0 -3.469446952e-18)
(-3.469446952e-18 -0 -3.469446952e-18)
(-1.734723476e-18 -0 -1.734723476e-18)
(-1.734723476e-18 -0 -3.469446952e-18)
(-3.469446952e-18 -0 -3.469446952e-18)
(1.734723476e-18 -0 -0)
(-3.469446952e-18 -0 -0)
(-0 -0 -0)
(-5.204170428e-18 -0 -3.469446952e-18)
(-0 -0 3.469446952e-18)
(-1.734723476e-18 -0 -0)
(-0 -0 -0)
(-0 -0 6.938893904e-18)
(1.734723476e-18 -0 3.469446952e-18)
(-0 -0 -0)
(-5.204170428e-18 -0 -2.168404345e-19)
(1.734723476e-18 -0 2.168404345e-19)
(-1.734723476e-18 -0 -0)
(-0 -0 4.33680869e-19)
(-0 -0 8.67361738e-19)
(-1.734723476e-18 -0 -8.67361738e-19)
(1.734723476e-18 -0 -0)
(3.469446952e-18 -0 -0)
(3.469446952e-18 -0 2.602085214e-18)
(-0 -0 -0)
(-1.734723476e-18 -0 -0)
(1.734723476e-18 -0 -0)
(-0 -0 -1.734723476e-18)
(-0 -0 -0)
(1.734723476e-18 -0 3.469446952e-18)
(1.734723476e-18 -0 -0)
(1.734723476e-18 -0 -0)
(-1.734723476e-18 -0 -0)
(-0 -0 -3.469446952e-18)
(-1.734723476e-18 -0 -0)
(-1.734723476e-18 -0 -3.469446952e-18)
(-0 -0 -3.469446952e-18)
(-0 -0 -3.469446952e-18)
(-1.734723476e-18 -0 3.469446952e-18)
(-0 -0 -0)
(-0 -0 -0)
(1.734723476e-18 -0 -3.469446952e-18)
(-3.469446952e-18 -0 -0)
(-1.734723476e-18 -0 -0)
(-1.734723476e-18 -0 -2.710505431e-20)
(-0 -0 -0)
(1.734723476e-18 -0 -6.505213035e-19)
(-3.469446952e-18 -0 -0)
(-3.469446952e-18 -0 -1.301042607e-18)
(3.469446952e-18 -0 8.67361738e-19)
(-1.734723476e-18 -0 8.67361738e-19)
(-3.469446952e-18 -0 -2.602085214e-18)
(-0 -0 -8.67361738e-19)
(-0 -0 -2.602085214e-18)
(-0 -0 -1.734723476e-18)
(-1.734723476e-18 -0 -0)
(-1.734723476e-18 -0 -1.734723476e-18)
(-3.469446952e-18 -0 -1.734723476e-18)
(-1.734723476e-18 -0 -1.734723476e-18)
(-0 -0 -0)
(1.734723476e-18 -0 1.734723476e-18)
(-0 -0 -0)
(1.734723476e-18 -0 -0)
(-1.734723476e-18 -0 -0)
(-3.469446952e-18 -0 -6.938893904e-18)
(-1.734723476e-18 -0 -0)
(5.204170428e-18 -0 -0)
(-1.734723476e-18 -0 -3.469446952e-18)
(1.734723476e-18 -0 3.469446952e-18)
(-5.204170428e-18 -0 -3.469446952e-18)
(-0 -0 -0)
(-1.734723476e-18 -0 -3.469446952e-18)
(-1.734723476e-18 -0 -0)
(-1.734723476e-18 -0 -0)
(-0 -0 -0)
(-1.734723476e-18 -0 -1.084202172e-19)
(-3.469446952e-18 -0 -6.505213035e-19)
(-0 -0 1.301042607e-18)
(-1.734723476e-18 -0 -4.33680869e-19)
(-0 -0 8.67361738e-19)
(-3.469446952e-18 -0 -2.602085214e-18)
(1.734723476e-18 -0 8.67361738e-19)
(3.469446952e-18 -0 -0)
(-0 -0 -1.734723476e-18)
(-1.734723476e-18 -0 -0)
(-1.734723476e-18 -0 -1.734723476e-18)
(-3.469446952e-18 -0 -1.734723476e-18)
(-1.734723476e-18 -0 -3.469446952e-18)
(-0 -0 1.734723476e-18)
(-0 -0 -0)
(-3.469446952e-18 -0 -1.734723476e-18)
(-3.469446952e-18 -0 -1.734723476e-18)
(-0 -0 -1.734723476e-18)
(-0 -0 3.469446952e-18)
(-3.469446952e-18 -0 -3.469446952e-18)
(3.469446952e-18 -0 -0)
(-1.734723476e-18 -0 -3.469446952e-18)
(1.734723476e-18 -0 6.938893904e-18)
(3.469446952e-18 -0 3.469446952e-18)
(-1.734723476e-18 -0 -3.469446952e-18)
(-3.469446952e-18 -0 -6.938893904e-18)
(-6.938893904e-18 -0 -6.938893904e-18)
(-5.204170428e-18 -0 -3.469446952e-18)
(-1.734723476e-18 -0 -6.938893904e-18)
(1.734723476e-18 -0 -0)
(1.734723476e-18 -0 -2.168404345e-19)
(-0 -0 -4.33680869e-19)
(3.469446952e-18 -0 8.67361738e-19)
(-1.734723476e-18 -0 -0)
(-0 -0 -0)
(3.469446952e-18 -0 -0)
(-1.734723476e-18 -0 -8.67361738e-19)
(-1.734723476e-18 -0 -0)
(1.734723476e-18 -0 -0)
(-1.734723476e-18 -0 -1.734723476e-18)
(-3.469446952e-18 -0 -1.734723476e-18)
(-3.469446952e-18 -0 -0)
(-1.734723476e-18 -0 -1.734723476e-18)
(1.734723476e-18 -0 -1.734723476e-18)
(-1.734723476e-18 -0 -0)
(-1.734723476e-18 -0 -3.469446952e-18)
(-5.204170428e-18 -0 -1.734723476e-18)
(-1.734723476e-18 -0 -0)
(5.204170428e-18 -0 -0)
(-1.734723476e-18 -0 -0)
(-5.204170428e-18 -0 -3.469446952e-18)
(-1.734723476e-18 -0 -0)
(-0 -0 -0)
(-1.734723476e-18 -0 6.938893904e-18)
(-1.734723476e-18 -0 -3.469446952e-18)
(-1.734723476e-18 -0 3.469446952e-18)
(3.469446952e-18 -0 6.938893904e-18)
(-0 -0 -3.469446952e-18)
(-3.469446952e-18 -0 -1.084202172e-19)
(3.469446952e-18 -0 -2.168404345e-19)
(3.469446952e-18 -0 -0)
(-3.469446952e-18 -0 -0)
(-0 -0 -8.67361738e-19)
(-0 -0 -0)
(-0 -0 -8.67361738e-19)
(-6.938893904e-18 -0 -3.469446952e-18)
(-0 -0 1.734723476e-18)
(-3.469446952e-18 -0 1.734723476e-18)
(-3.469446952e-18 -0 -3.469446952e-18)
(-0 -0 -1.734723476e-18)
(-3.469446952e-18 -0 -1.734723476e-18)
(-3.469446952e-18 -0 -1.734723476e-18)
(3.469446952e-18 -0 -0)
(-0 -0 1.734723476e-18)
(-3.469446952e-18 -0 -3.469446952e-18)
(-3.469446952e-18 -0 -3.469446952e-18)
(-3.469446952e-18 -0 -3.469446952e-18)
(-0 -0 -0)
(3.469446952e-18 -0 -3.469446952e-18)
(3.469446952e-18 -0 3.469446952e-18)
(-3.469446952e-18 -0 -0)
(-3.469446952e-18 -0 -3.469446952e-18)
(-3.469446952e-18 -0 -0)
(-0 -0 -3.469446952e-18)
(-0 -0 3.469446952e-18)
(-3.469446952e-18 -0 -0)
(-0 -0 -0)
(-3.469446952e-18 -0 -2.168404345e-19)
(-3.469446952e-18 -0 -6.505213035e-19)
(-0 -0 -0)
(-3.469446952e-18 -0 -8.67361738e-19)
(-6.938893904e-18 -0 -0)
(-6.938893904e-18 -0 -0)
(-3.469446952e-18 -0 -8.67361738e-19)
(-0 -0 -0)
(3.469446952e-18 -0 -0)
(3.469446952e-18 -0 1.734723476e-18)
(3.469446952e-18 -0 -0)
(3.469446952e-18 -0 1.734723476e-18)
(3.469446952e-18 -0 -0)
(-0 -0 -1.734723476e-18)
(-0 -0 -0)
(-3.469446952e-18 -0 -1.734723476e-18)
(-6.938893904e-18 -0 -5.204170428e-18)
(-3.469446952e-18 -0 -1.734723476e-18)
(6.938893904e-18 -0 3.469446952e-18)
(-3.469446952e-18 -0 -0)
(-3.469446952e-18 -0 -0)
(-3.469446952e-18 -0 -0)
(-3.469446952e-18 -0 -6.938893904e-18)
(3.469446952e-18 -0 -0)
(3.469446952e-18 -0 3.469446952e-18)
(3.469446952e-18 -0 -0)
(-0 -0 3.469446952e-18)
(-0 -0 -3.469446952e-18)
(-6.938893904e-18 -0 -4.33680869e-19)
(-0 -0 -4.33680869e-19)
(-6.938893904e-18 -0 -1.301042607e-18)
(-3.469446952e-18 -0 8.67361738e-19)
(-0 -0 -0)
(-0 -0 -0)
(-0 -0 -1.734723476e-18)
(-0 -0 -1.734723476e-18)
(-6.938893904e-18 -0 -1.734723476e-18)
(-3.469446952e-18 -0 -0)
(-3.469446952e-18 -0 -1.734723476e-18)
(-0 -0 -1.734723476e-18)
(-0 -0 -0)
(-3.469446952e-18 -0 -3.469446952e-18)
(3.469446952e-18 -0 1.734723476e-18)
(3.469446952e-18 -0 1.734723476e-18)
(-3.469446952e-18 -0 -5.204170428e-18)
(3.469446952e-18 -0 -0)
(-0 -0 -0)
(3.469446952e-18 -0 -0)
(3.469446952e-18 -0 -0)
(-0 -0 -0)
(-0 -0 -3.469446952e-18)
(-0 -0 -3.469446952e-18)
(-3.469446952e-18 -0 -6.938893904e-18)
(3.469446952e-18 -0 -0)
(-3.469446952e-18 -0 -3.469446952e-18)
(-3.469446952e-18 -0 -6.505213035e-19)
(-3.469446952e-18 -0 -4.33680869e-19)
(3.469446952e-18 -0 4.33680869e-19)
(-3.469446952e-18 -0 -0)
(-3.469446952e-18 -0 -1.734723476e-18)
(-3.469446952e-18 -0 -2.602085214e-18)
(-0 -0 -8.67361738e-19)
(3.469446952e-18 -0 8.67361738e-19)
(-0 -0 -0)
(-3.469446952e-18 -0 -3.469446952e-18)
(-3.469446952e-18 -0 -3.469446952e-18)
(3.469446952e-18 -0 1.734723476e-18)
(-0 -0 -3.469446952e-18)
(-6.938893904e-18 -0 -3.469446952e-18)
(3.469446952e-18 -0 -0)
(-3.469446952e-18 -0 -3.469446952e-18)
(3.469446952e-18 -0 -0)
(-0 -0 3.469446952e-18)
(-0 -0 -3.469446952e-18)
(-0 -0 -6.938893904e-18)
(-3.469446952e-18 -0 -6.938893904e-18)
(3.469446952e-18 -0 -0)
(-0 -0 -3.469446952e-18)
(-0 -0 -3.469446952e-18)
(-0 -0 -0)
(-3.469446952e-18 -0 -0)
(-3.469446952e-18 -0 -0)
(3.469446952e-18 -0 -4.33680869e-19)
(3.469446952e-18 -0 -0)
(-0 -0 -8.67361738e-19)
(-0 -0 -8.67361738e-19)
(3.469446952e-18 -0 -8.67361738e-19)
(3.469446952e-18 -0 1.734723476e-18)
(-3.469446952e-18 -0 -1.734723476e-18)
(-3.469446952e-18 -0 1.734723476e-18)
(3.469446952e-18 -0 1.734723476e-18)
(-0 -0 -0)
(-0 -0 -1.734723476e-18)
(-3.469446952e-18 -0 -5.204170428e-18)
(-3.469446952e-18 -0 -0)
(-3.469446952e-18 -0 -1.734723476e-18)
(6.938893904e-18 -0 -0)
(3.469446952e-18 -0 3.469446952e-18)
(-0 -0 -3.469446952e-18)
(-0 -0 -3.469446952e-18)
(-0 -0 3.469446952e-18)
(-0 -0 -3.469446952e-18)
(3.469446952e-18 -0 3.469446952e-18)
(-0 -0 3.469446952e-18)
(-0 -0 -0)
(-0 -0 -0)
(-3.469446952e-18 -0 -0)
(3.469446952e-18 -0 -0)
(-0 -0 -0)
(3.469446952e-18 -0 -8.67361738e-19)
(-0 -0 -0)
(-3.469446952e-18 -0 -0)
(-0 -0 -8.67361738e-19)
(-0 -0 -1.734723476e-18)
(-3.469446952e-18 -0 -1.734723476e-18)
(-0 -0 -1.734723476e-18)
(-0 -0 -1.734723476e-18)
(-3.469446952e-18 -0 -1.734723476e-18)
(-3.469446952e-18 -0 -1.734723476e-18)
(-0 -0 -1.734723476e-18)
(-3.469446952e-18 -0 -0)
(-0 -0 -0)
(-3.469446952e-18 -0 -6.938893904e-18)
(-3.469446952e-18 -0 -0)
(-0 -0 -3.469446952e-18)
(6.938893904e-18 -0 3.469446952e-18)
(-6.938893904e-18 -0 -0)
(-3.469446952e-18 -0 -0)
(-3.469446952e-18 -0 3.469446952e-18)
(-3.469446952e-18 -0 -0)
(-0 -0 -0)
(-3.469446952e-18 -0 -1.734723476e-18)
(-6.938893904e-18 -0 -0)
(-0 -0 -8.67361738e-19)
(-3.469446952e-18 -0 -8.67361738e-19)
(6.938893904e-18 -0 8.67361738e-19)
(3.469446952e-18 -0 -0)
(-3.469446952e-18 -0 1.734723476e-18)
(3.469446952e-18 -0 -0)
(-0 -0 -0)
(-3.469446952e-18 -0 -0)
(-3.469446952e-18 -0 -1.734723476e-18)
(-0 -0 -0)
(-0 -0 -0)
(-0 -0 -0)
(3.469446952e-18 -0 -3.469446952e-18)
(-0 -0 -3.469446952e-18)
(-0 -0 -0)
(-0 -0 -0)
(1.040834086e-17 -0 3.469446952e-18)
(-0 -0 -0)
(3.469446952e-18 -0 6.938893904e-18)
(-0 -0 -0)
(-0 -0 8.67361738e-19)
(-3.469446952e-18 -0 -0)
(-6.938893904e-18 -0 -1.734723476e-18)
(-0 -0 -8.67361738e-19)
(3.469446952e-18 -0 1.734723476e-18)
(-0 -0 -0)
(-3.469446952e-18 -0 -3.469446952e-18)
(-3.469446952e-18 -0 -1.734723476e-18)
(-3.469446952e-18 -0 -3.469446952e-18)
(-6.938893904e-18 -0 -1.734723476e-18)
(-0 -0 -1.734723476e-18)
(-3.469446952e-18 -0 -1.734723476e-18)
(-3.469446952e-18 -0 3.469446952e-18)
(-0 -0 3.469446952e-18)
(-0 -0 -0)
(-0 -0 -3.469446952e-18)
(-3.469446952e-18 -0 -3.469446952e-18)
(-1.040834086e-17 -0 -3.469446952e-18)
(-6.938893904e-18 -0 -3.469446952e-18)
(-6.938893904e-18 -0 -8.67361738e-19)
(-0 -0 -8.67361738e-19)
(-3.469446952e-18 -0 -1.734723476e-18)
(-3.469446952e-18 -0 -0)
(3.469446952e-18 -0 1.734723476e-18)
(-0 -0 -0)
(-0 -0 -1.734723476e-18)
(-0 -0 -3.469446952e-18)
(3.469446952e-18 -0 1.734723476e-18)
(-0 -0 1.734723476e-18)
(-3.469446952e-18 -0 -1.734723476e-18)
(-0 -0 -3.469446952e-18)
(-0 -0 -0)
(-0 -0 -0)
(-0 -0 -0)
(-3.469446952e-18 -0 -3.469446952e-18)
(-0 -0 -0)
(3.469446952e-18 -0 -0)
(3.469446952e-18 -0 1.734723476e-18)
(-0 -0 1.734723476e-18)
(-0 -0 -0)
(-3.469446952e-18 -0 -0)
(3.469446952e-18 -0 -0)
(-0 -0 1.734723476e-18)
(3.469446952e-18 -0 -1.734723476e-18)
(-0 -0 -1.734723476e-18)
(6.938893904e-18 -0 -1.734723476e-18)
(-1.040834086e-17 -0 -0)
(-0 -0 -0)
(-0 -0 -0)
(-1.040834086e-17 -0 -3.469446952e-18)
(3.469446952e-18 -0 -1.734723476e-18)
(-3.469446952e-18 -0 -1.734723476e-18)
(-3.469446952e-18 -0 -1.734723476e-18)
(3.469446952e-18 -0 -0)
(-0 -0 -0)
(3.469446952e-18 -0 -1.734723476e-18)
(3.469446952e-18 -0 -1.734723476e-18)
(-6.938893904e-18 -0 -3.469446952e-18)
(3.469446952e-18 -0 -0)
(-0 -0 -0)
(-1.084202172e-19 -0 -3.469446952e-18)
(-1.084202172e-19 -0 1.734723476e-18)
(-0 -0 1.734723476e-18)
(-1.084202172e-19 -0 -0)
(-0 -0 -0)
(1.084202172e-19 -0 -0)
(1.084202172e-19 -0 -0)
(-0 -0 1.734723476e-18)
(-0 -0 -0)
(-0 -0 -0)
(-5.421010862e-20 -0 -0)
(-0 -0 -3.469446952e-18)
(-0 -0 -3.469446952e-18)
(-2.710505431e-20 -0 -1.734723476e-18)
(-1.084202172e-19 -0 -0)
(-1.084202172e-19 -0 -3.469446952e-18)
(-5.421010862e-20 -0 -1.734723476e-18)
(-0 -0 -0)
(-5.421010862e-20 -0 -0)
(-0 -0 -0)
(-0 -0 -3.469446952e-18)
(-0 -0 -0)
(-0 -0 -0)
(2.168404345e-19 -0 -8.67361738e-19)
(-2.168404345e-19 -0 -0)
(2.168404345e-19 -0 1.734723476e-18)
(-2.168404345e-19 -0 -0)
(-4.33680869e-19 -0 -0)
(2.168404345e-19 -0 -0)
(-1.084202172e-19 -0 -1.734723476e-18)
(-2.168404345e-19 -0 -6.938893904e-18)
(-0 -0 -0)
(-0 -0 -0)
(-6.505213035e-19 -0 -6.938893904e-18)
(-0 -0 -0)
(-0 -0 -0)
(-0 -0 -0)
(-0 -0 -0)
(-0 -0 -0)
(-0 -0 -1.734723476e-18)
(-0 -0 -0)
(-4.33680869e-19 -0 -1.734723476e-18)
(-4.33680869e-19 -0 -0)
(-8.67361738e-19 -0 -6.938893904e-18)
(-0 -0 -0)
(-0 -0 -0)
(-0 -0 -0)
(-0 -0 -8.67361738e-19)
(-0 -0 -0)
(-0 -0 -0)
(-4.33680869e-19 -0 -0)
(4.33680869e-19 -0 -0)
(-0 -0 -3.469446952e-18)
(-0 -0 -3.469446952e-18)
(-0 -0 -0)
(-4.33680869e-19 -0 3.469446952e-18)
(-0 -0 -0)
(-0 -0 -0)
(-0 -0 -8.67361738e-19)
(4.33680869e-19 -0 -0)
(-0 -0 3.469446952e-18)
(-0 -0 -0)
(-0 -0 -0)
(1.734723476e-18 -0 8.67361738e-19)
(-0 -0 -0)
(-0 -0 -3.469446952e-18)
(-0 -0 -0)
(-0 -0 -0)
(-8.67361738e-19 -0 -0)
(-0 -0 -0)
(-8.67361738e-19 -0 -8.67361738e-19)
(-0 -0 -0)
(-0 -0 3.469446952e-18)
(-1.734723476e-18 -0 -3.469446952e-18)
(-0 -0 -0)
(2.602085214e-18 -0 -0)
(-0 -0 -0)
(-8.67361738e-19 -0 -0)
(-0 -0 -0)
(-0 -0 3.469446952e-18)
(-0 -0 -0)
(8.67361738e-19 -0 2.168404345e-19)
(-1.734723476e-18 -0 2.168404345e-19)
(-0 -0 -1.040834086e-17)
(-0 -0 -0)
(-0 -0 -2.168404345e-19)
(8.67361738e-19 -0 -0)
(-1.734723476e-18 -0 -6.938893904e-18)
(-0 -0 3.469446952e-18)
(-0 -0 3.469446952e-18)
(1.734723476e-18 -0 -0)
(-0 -0 -0)
(-0 -0 2.168404345e-19)
(-1.734723476e-18 -0 -2.168404345e-19)
(1.734723476e-18 -0 6.938893904e-18)
(1.734723476e-18 -0 -0)
(-0 -0 -0)
(-0 -0 -0)
(-0 -0 -1.084202172e-19)
(1.734723476e-18 -0 -0)
(-1.734723476e-18 -0 -3.469446952e-18)
(-0 -0 -0)
(-1.734723476e-18 -0 -1.084202172e-19)
(-1.734723476e-18 -0 -5.421010862e-20)
(-1.734723476e-18 -0 -0)
(-0 -0 3.469446952e-18)
(-3.469446952e-18 -0 -8.131516294e-20)
(5.204170428e-18 -0 1.084202172e-19)
(-0 -0 -1.084202172e-19)
(-0 -0 -0)
(-1.734723476e-18 -0 -3.469446952e-18)
(1.734723476e-18 -0 -0)
(-0 -0 2.710505431e-20)
(1.734723476e-18 -0 -1.084202172e-19)
(-0 -0 -0)
(-3.469446952e-18 -0 -6.938893904e-18)
(1.734723476e-18 -0 3.469446952e-18)
(-0 -0 -0)
(-1.734723476e-18 -0 -8.131516294e-20)
(-0 -0 1.084202172e-19)
(-0 -0 -0)
(-3.469446952e-18 -0 -3.469446952e-18)
(1.734723476e-18 -0 3.469446952e-18)
(1.734723476e-18 -0 -0)
(3.469446952e-18 -0 -0)
(-1.734723476e-18 -0 -2.168404345e-19)
(-3.469446952e-18 -0 -1.084202172e-19)
(-1.734723476e-18 -0 -6.938893904e-18)
(-0 -0 -0)
(-0 -0 -0)
(-5.204170428e-18 -0 -1.084202172e-19)
(-1.734723476e-18 -0 -1.084202172e-19)
(-0 -0 3.469446952e-18)
(-0 -0 6.938893904e-18)
(-0 -0 -1.084202172e-19)
(-1.734723476e-18 -0 -0)
(-3.469446952e-18 -0 -3.469446952e-18)
(-0 -0 -0)
(3.469446952e-18 -0 -0)
(3.469446952e-18 -0 2.168404345e-19)
(-6.938893904e-18 -0 -4.33680869e-19)
(-0 -0 3.469446952e-18)
(3.469446952e-18 -0 6.938893904e-18)
(-0 -0 1.040834086e-17)
(-0 -0 -0)
(-0 -0 -0)
(-3.469446952e-18 -0 -2.168404345e-19)
(-3.469446952e-18 -0 -3.469446952e-18)
(-0 -0 -0)
(-3.469446952e-18 -0 -6.938893904e-18)
(-0 -0 -0)
(-0 -0 -2.168404345e-19)
(-0 -0 6.938893904e-18)
(-0 -0 -0)
(-0 -0 -8.67361738e-19)
(-3.469446952e-18 -0 -4.33680869e-19)
(-6.938893904e-18 -0 -6.938893904e-18)
(-0 -0 -0)
(-3.469446952e-18 -0 -3.469446952e-18)
(-0 -0 -0)
(-0 -0 -0)
(-6.938893904e-18 -0 -1.301042607e-18)
(-6.938893904e-18 -0 -8.67361738e-19)
(-6.938893904e-18 -0 -6.938893904e-18)
(-0 -0 -0)
(-0 -0 -3.469446952e-18)
(-0 -0 -0)
(-6.938893904e-18 -0 -4.33680869e-19)
(-0 -0 -0)
(6.938893904e-18 -0 -0)
(-0 -0 8.67361738e-19)
(6.938893904e-18 -0 -0)
(6.938893904e-18 -0 -0)
(-0 -0 -0)
(-0 -0 -0)
(-3.469446952e-18 -0 -8.67361738e-19)
(-3.469446952e-18 -0 -0)
(-0 -0 -1.734723476e-18)
(-3.469446952e-18 -0 1.734723476e-18)
(-0 -0 -0)
(-0 -0 -3.469446952e-18)
(-0 -0 -0)
(-0 -0 -0)
(-0 -0 -0)
(-0 -0 8.67361738e-19)
(-0 -0 -0)
(-3.469446952e-18 -0 -1.734723476e-18)
(-0 -0 8.67361738e-19)
(-3.469446952e-18 -0 3.469446952e-18)
(-0 -0 -0)
(-6.938893904e-18 -0 -0)
(3.469446952e-18 -0 1.734723476e-18)
(-0 -0 -8.67361738e-19)
(3.469446952e-18 -0 -0)
(-0 -0 1.734723476e-18)
(-0 -0 -3.469446952e-18)
(-3.469446952e-18 -0 -0)
(-0 -0 -0)
(-0 -0 -3.469446952e-18)
(6.938893904e-18 -0 -0)
(-0 -0 -0)
(-0 -0 -0)
(3.469446952e-18 -0 -0)
(3.469446952e-18 -0 -3.469446952e-18)
(-0 -0 3.469446952e-18)
(-0 -0 -0)
(-3.469446952e-18 -0 -1.734723476e-18)
(-3.469446952e-18 -0 -0)
(3.469446952e-18 -0 1.734723476e-18)
(3.469446952e-18 -0 1.734723476e-18)
(-0 -0 1.734723476e-18)
(-3.469446952e-18 -0 -0)
(-0 -0 -1.734723476e-18)
(3.469446952e-18 -0 1.734723476e-18)
(-3.469446952e-18 -0 -1.734723476e-18)
(3.469446952e-18 -0 3.469446952e-18)
(-6.938893904e-18 -0 -3.469446952e-18)
(-3.469446952e-18 -0 -0)
(-6.938893904e-18 -0 -3.469446952e-18)
(-3.469446952e-18 -0 -1.734723476e-18)
(3.469446952e-18 -0 -1.734723476e-18)
(-0 -0 -0)
(-3.469446952e-18 -0 -1.734723476e-18)
(-1.040834086e-17 -0 -0)
(-0 -0 -1.734723476e-18)
(-4.33680869e-19 -0 -1.734723476e-18)
(-1.084202172e-19 -0 -0)
(-0 -0 -1.734723476e-18)
(-2.168404345e-19 -0 1.734723476e-18)
(-0 -0 1.734723476e-18)
(-0 -0 -0)
(-0 -0 -0)
(-4.33680869e-19 -0 -1.734723476e-18)
(-2.168404345e-19 -0 -1.734723476e-18)
(-0 -0 -0)
(-0 -0 -0)
(-0 -0 -0)
(-0 -0 -1.734723476e-18)
(-2.168404345e-19 -0 -5.204170428e-18)
(-0 -0 -0)
(-2.168404345e-19 -0 -1.734723476e-18)
(2.168404345e-19 -0 -1.734723476e-18)
(-2.168404345e-19 -0 1.734723476e-18)
(-2.168404345e-19 -0 1.734723476e-18)
(-1.084202172e-19 -0 -0)
(2.168404345e-19 -0 -5.204170428e-18)
(-2.168404345e-19 -0 -3.469446952e-18)
(-0 -0 -0)
(-4.33680869e-19 -0 8.67361738e-19)
(-0 -0 -0)
(2.168404345e-19 -0 8.67361738e-19)
(-0 -0 -0)
(4.33680869e-19 -0 1.734723476e-18)
(-4.33680869e-19 -0 -1.734723476e-18)
(-4.33680869e-19 -0 -0)
(-4.33680869e-19 -0 -0)
(-4.33680869e-19 -0 -1.734723476e-18)
(-0 -0 -0)
(-0 -0 -1.734723476e-18)
(-4.33680869e-19 -0 -0)
(-0 -0 -0)
(4.33680869e-19 -0 -0)
(2.168404345e-19 -0 1.734723476e-18)
(-0 -0 1.734723476e-18)
(-0 -0 -1.734723476e-18)
(-0 -0 1.734723476e-18)
(-0 -0 -0)
(-4.33680869e-19 -0 -1.734723476e-18)
(-2.168404345e-19 -0 -0)
(-4.33680869e-19 -0 -0)
(-0 -0 -0)
(-2.168404345e-19 -0 -1.734723476e-18)
(-0 -0 -1.734723476e-18)
(4.33680869e-19 -0 1.734723476e-18)
(-2.168404345e-19 -0 -0)
(4.33680869e-19 -0 -3.469446952e-18)
(-0 -0 -3.469446952e-18)
(-2.168404345e-19 -0 -5.204170428e-18)
(-0 -0 3.469446952e-18)
(-0 -0 -0)
(-2.168404345e-19 -0 -3.469446952e-18)
(-0 -0 3.469446952e-18)
(-4.33680869e-19 -0 -3.469446952e-18)
(2.168404345e-19 -0 -3.469446952e-18)
(4.33680869e-19 -0 -6.938893904e-18)
(-0 -0 -3.469446952e-18)
(2.168404345e-19 -0 3.469446952e-18)
(-8.67361738e-19 -0 -3.469446952e-18)
(-8.67361738e-19 -0 -3.469446952e-18)
(-4.33680869e-19 -0 -3.469446952e-18)
(-0 -0 -8.67361738e-19)
(-0 -0 -8.67361738e-19)
(-0 -0 -0)
(-4.33680869e-19 -0 -8.67361738e-19)
(-8.67361738e-19 -0 -2.602085214e-18)
(-0 -0 -2.602085214e-18)
(-8.67361738e-19 -0 -8.67361738e-19)
(-4.33680869e-19 -0 -1.734723476e-18)
(4.33680869e-19 -0 -0)
(4.33680869e-19 -0 1.734723476e-18)
(-0 -0 -1.734723476e-18)
(-4.33680869e-19 -0 -0)
(-0 -0 -1.734723476e-18)
(4.33680869e-19 -0 -0)
(-4.33680869e-19 -0 -0)
(-0 -0 -1.734723476e-18)
(-4.33680869e-19 -0 3.469446952e-18)
(-0 -0 1.734723476e-18)
(-4.33680869e-19 -0 3.469446952e-18)
(-4.33680869e-19 -0 -1.734723476e-18)
(-0 -0 -0)
(-8.67361738e-19 -0 -3.469446952e-18)
(-4.33680869e-19 -0 1.734723476e-18)
(-4.33680869e-19 -0 -0)
(-0 -0 -1.734723476e-18)
(-4.33680869e-19 -0 -1.734723476e-18)
(4.33680869e-19 -0 -1.734723476e-18)
(8.67361738e-19 -0 3.469446952e-18)
(-0 -0 -0)
(-8.67361738e-19 -0 -1.734723476e-18)
(-8.67361738e-19 -0 -5.204170428e-18)
(8.67361738e-19 -0 -0)
(-4.33680869e-19 -0 -0)
(4.33680869e-19 -0 1.734723476e-18)
(-8.67361738e-19 -0 -3.469446952e-18)
(-4.33680869e-19 -0 -3.469446952e-18)
(-4.33680869e-19 -0 -3.469446952e-18)
(-0 -0 -0)